                                  MODFLOW-2005     
      U.S. GEOLOGICAL SURVEY MODULAR FINITE-DIFFERENCE GROUND-WATER FLOW MODEL
                            VERSION 1.11.00 8/8/2013

 LIST FILE: Model_for_Pirna.lst
                         UNIT   11

 OPENING Model_for_Pirna.cbc
 FILE TYPE:DATA(BINARY)   UNIT    9   STATUS:REPLACE
 FORMAT:UNFORMATTED            ACCESS:STREAM              

 OPENING Model_for_Pirna.dis
 FILE TYPE:DIS   UNIT   12   STATUS:OLD    
 FORMAT:FORMATTED              ACCESS:SEQUENTIAL          

 OPENING Model_for_Pirna.bas
 FILE TYPE:BAS6   UNIT   13   STATUS:OLD    
 FORMAT:FORMATTED              ACCESS:SEQUENTIAL          

 OPENING Model_for_Pirna.oc
 FILE TYPE:OC   UNIT   39   STATUS:OLD    
 FORMAT:FORMATTED              ACCESS:SEQUENTIAL          

 OPENING Model_for_Pirna.fhd
 FILE TYPE:DATA   UNIT   37   STATUS:REPLACE
 FORMAT:FORMATTED              ACCESS:SEQUENTIAL          

 OPENING Model_for_Pirna.fdn
 FILE TYPE:DATA   UNIT   38   STATUS:REPLACE
 FORMAT:FORMATTED              ACCESS:SEQUENTIAL          

 OPENING Model_for_Pirna.pcg
 FILE TYPE:PCG   UNIT   18   STATUS:OLD    
 FORMAT:FORMATTED              ACCESS:SEQUENTIAL          

 OPENING Model_for_Pirna.lpf
 FILE TYPE:LPF   UNIT   14   STATUS:OLD    
 FORMAT:FORMATTED              ACCESS:SEQUENTIAL          

 OPENING Model_for_Pirna.chd
 FILE TYPE:CHD   UNIT   17   STATUS:OLD    
 FORMAT:FORMATTED              ACCESS:SEQUENTIAL          

 OPENING Model_for_Pirna.rch
 FILE TYPE:RCH   UNIT   24   STATUS:OLD    
 FORMAT:FORMATTED              ACCESS:SEQUENTIAL          

 OPENING Model_for_Pirna.ob_hob
 FILE TYPE:HOB   UNIT   41   STATUS:OLD    
 FORMAT:FORMATTED              ACCESS:SEQUENTIAL          

 OPENING Model_for_Pirna.hob_out
 FILE TYPE:DATA   UNIT   42   STATUS:REPLACE
 FORMAT:FORMATTED              ACCESS:SEQUENTIAL          

 BAS -- BASIC PACKAGE, VERSION 7, 5/2/2005 INPUT READ FROM UNIT   13

 MODFLOW was compiled using mixed precision
 Precision of REAL variables:           6
 Precision of DOUBLE PRECISION variables:          15

 DISCRETIZATION INPUT DATA READ FROM UNIT   12
 # Discretization File created on 07.07.2016 by ModelMuse version 3.7.1.0.
 # Upper left corner: (5424432.6894875, 5648440.1473251)
 # Lower left corner: (5424432.6894875, 5648260.1473251)
 # Upper right corner: (5424572.4672653, 5648440.1473251)
 # Lower right corner: (5424572.4672653, 5648260.1473251)
 # Grid angle (in degrees counterclockwise): 0
    5 LAYERS        22 ROWS        17 COLUMNS
  132 STRESS PERIOD(S) IN SIMULATION
 MODEL TIME UNIT IS SECONDS
 MODEL LENGTH UNIT IS METERS
  Confining bed flag for each layer:
   0   0   0   0   0



                               DELR
 READING ON UNIT   12 WITH FORMAT: (FREE)              
   8.0000       8.0000       8.0000       8.0000       8.0000    
   8.0000       8.0000       8.0000       8.0000       8.0000    
   8.0000       8.0000       8.0000       8.0000       8.0000    
   8.0000       11.778    



                               DELC
 READING ON UNIT   12 WITH FORMAT: (FREE)              
   12.000       8.0000       8.0000       8.0000       8.0000    
   8.0000       8.0000       8.0000       8.0000       8.0000    
   8.0000       8.0000       8.0000       8.0000       8.0000    
   8.0000       8.0000       8.0000       8.0000       8.0000    
   8.0000       8.0000    



           TOP ELEVATION OF LAYER 1
 READING ON UNIT   12 WITH FORMAT: (FREE)              

            1           2           3           4           5           6           7           8           9          10
           11          12          13          14          15          16          17
 ........................................................................................................................
   1    119.3       119.3       119.3       119.3       119.3       119.3       119.3       119.3       119.3       119.3    
        119.3       119.0       118.8       118.6       118.3       118.1       117.8    
   2    119.3       119.3       119.3       119.3       119.3       119.3       119.3       119.3       119.3       119.3    
        119.0       118.8       118.5       118.3       118.1       117.8       117.5    
   3    119.3       119.3       119.3       119.3       119.3       119.3       119.3       119.3       119.3       119.0    
        118.8       118.6       118.3       118.1       117.9       117.6       117.3    
   4    119.3       119.3       119.3       119.3       119.3       119.3       119.2       119.2       119.0       118.8    
        118.6       118.4       118.1       117.9       117.6       117.4       117.1    
   5    119.4       119.4       119.4       119.3       119.2       119.2       119.1       118.9       118.7       118.5    
        118.3       118.1       117.9       117.7       117.4       117.2       116.9    
   6    119.5       119.5       119.5       119.3       119.1       119.0       118.8       118.6       118.4       118.2    
        118.0       117.8       117.7       117.5       117.2       117.0       116.7    
   7    119.5       119.4       119.0       118.6       118.5       118.4       118.4       118.2       118.1       117.9    
        117.7       117.5       117.3       117.2       117.0       116.8       116.5    
   8    119.0       118.6       118.2       117.8       117.6       117.6       117.7       117.7       117.6       117.4    
        117.2       117.1       116.9       116.8       116.8       116.6       116.3    
   9    118.2       117.8       117.4       117.1       116.9       116.8       116.9       116.9       117.0       116.9    
        116.7       116.6       116.4       116.4       116.3       116.3       116.1    
  10    117.5       117.1       117.0       117.0       116.9       116.7       116.5       116.4       116.2       116.2    
        116.2       116.1       116.0       116.0       115.9       116.0       116.1    
  11    117.0       117.0       117.0       117.0       116.8       116.7       116.5       116.3       116.2       116.0    
        115.8       115.7       115.8       115.9       115.9       116.0       116.1    
  12    117.0       117.0       117.0       116.9       116.8       116.6       116.4       116.3       116.1       116.0    
        115.8       115.7       115.8       115.8       115.9       116.0       116.1    
  13    117.0       117.0       117.0       116.9       116.7       116.6       116.4       116.2       116.1       115.9    
        115.8       115.7       115.7       115.8       115.9       116.0       116.1    
  14    117.0       117.0       117.0       116.8       116.7       116.5       116.4       116.2       116.0       115.9    
        115.7       115.7       115.7       115.8       115.9       115.9       116.0    
  15    117.0       117.0       117.0       116.8       116.6       116.5       116.3       116.2       116.0       115.8    
        115.7       115.7       115.7       115.8       115.9       115.9       116.0    
  16    117.0       117.0       116.9       116.8       116.6       116.4       116.3       116.1       115.9       115.8    
        115.7       115.7       115.7       115.8       115.8       115.9       116.0    
  17    117.0       117.0       116.9       116.7       116.5       116.4       116.2       116.1       115.9       115.7    
        115.7       115.7       115.7       115.8       115.8       115.9       116.0    
  18    117.0       117.0       116.8       116.7       116.5       116.3       116.2       116.0       115.9       115.7    
        115.7       115.7       115.7       115.7       115.8       115.9       116.0    
  19    117.0       116.9       116.8       116.6       116.5       116.3       116.1       116.0       115.8       115.7    
        115.7       115.7       115.7       115.7       115.8       115.9       116.0    
  20    117.0       116.9       116.7       116.6       116.4       116.3       116.1       115.9       115.8       115.7    
        115.7       115.7       115.7       115.7       115.8       115.8       115.9    
  21    117.0       116.9       116.7       116.5       116.4       116.2       116.0       115.9       115.7       115.7    
        115.7       115.7       115.7       115.7       115.8       115.8       115.9    
  22    117.0       116.8       116.7       116.5       116.3       116.2       116.0       115.8       115.7       115.7    
        115.7       115.7       115.7       115.7       115.7       115.8       115.9    



             MODEL LAYER BOTTOM EL. FOR LAYER   1
 READING ON UNIT   12 WITH FORMAT: (FREE)              

            1           2           3           4           5           6           7           8           9          10
           11          12          13          14          15          16          17
 ........................................................................................................................
   1    112.0       112.0       112.1       112.2       112.3       112.3       112.4       112.5       112.5       112.5    
        112.5       112.5       112.5       112.4       112.4       112.4       112.3    
   2    112.0       112.0       112.1       112.1       112.2       112.3       112.4       112.5       112.5       112.5    
        112.5       112.5       112.4       112.4       112.4       112.3       112.3    
   3    112.0       112.0       112.0       112.1       112.2       112.3       112.4       112.4       112.5       112.5    
        112.5       112.4       112.4       112.4       112.3       112.3       112.3    
   4    112.0       112.0       112.0       112.1       112.2       112.2       112.2       112.2       112.4       112.5    
        112.4       112.4       112.4       112.3       112.3       112.3       112.3    
   5    112.2       112.2       112.1       112.0       112.0       112.0       112.0       112.1       112.2       112.3    
        112.4       112.4       112.4       112.3       112.3       112.3       112.2    
   6    112.5       112.5       112.4       112.2       111.9       111.8       111.9       112.0       112.1       112.2    
        112.3       112.4       112.3       112.3       112.3       112.2       112.2    
   7    112.5       112.4       112.3       112.2       111.8       111.6       111.6       111.7       111.9       112.0    
        112.1       112.2       112.4       112.3       112.2       112.2       112.2    
   8    112.3       112.2       112.1       112.0       111.8       111.6       111.5       111.4       111.5       111.6    
        111.8       111.9       112.1       112.2       112.2       112.2       112.1    
   9    112.1       112.0       111.9       111.8       111.7       111.6       111.5       111.4       111.2       111.2    
        111.4       111.5       111.7       111.8       112.0       112.2       112.1    
  10    111.9       111.8       111.8       111.8       111.7       111.6       111.5       111.3       111.2       111.1    
        111.0       111.1       111.3       111.5       111.7       111.9       112.1    
  11    111.8       111.8       111.8       111.8       111.7       111.5       111.4       111.3       111.2       111.1    
        110.9       110.8       111.1       111.4       111.6       111.9       112.1    
  12    111.8       111.8       111.8       111.8       111.6       111.5       111.4       111.3       111.1       111.0    
        110.9       110.8       111.0       111.3       111.5       111.8       112.1    
  13    111.8       111.8       111.8       111.7       111.6       111.5       111.4       111.2       111.1       111.0    
        110.9       110.8       111.0       111.2       111.5       111.7       112.1    
  14    111.8       111.8       111.8       111.7       111.6       111.4       111.3       111.2       111.1       111.0    
        110.8       110.8       110.9       111.2       111.4       111.7       112.0    
  15    111.8       111.8       111.8       111.7       111.5       111.4       111.3       111.2       111.0       110.9    
        110.8       110.8       110.8       111.1       111.4       111.6       111.9    
  16    111.8       111.8       111.8       111.6       111.5       111.4       111.3       111.1       111.0       110.9    
        110.8       110.8       110.8       111.0       111.3       111.5       111.9    
  17    111.8       111.8       111.7       111.6       111.5       111.3       111.2       111.1       111.0       110.8    
        110.8       110.8       110.8       111.0       111.2       111.5       111.8    
  18    111.8       111.8       111.7       111.6       111.4       111.3       111.2       111.1       110.9       110.8    
        110.8       110.8       110.8       110.9       111.2       111.4       111.7    
  19    111.8       111.8       111.6       111.5       111.4       111.3       111.2       111.0       110.9       110.8    
        110.8       110.8       110.8       110.8       111.1       111.4       111.7    
  20    111.8       111.7       111.6       111.5       111.4       111.2       111.1       111.0       110.9       110.8    
        110.8       110.8       110.8       110.8       111.0       111.3       111.6    
  21    111.8       111.7       111.6       111.5       111.3       111.2       111.1       111.0       110.8       110.8    
        110.8       110.8       110.8       110.8       111.0       111.2       111.6    
  22    111.8       111.7       111.5       111.4       111.3       111.2       111.1       110.9       110.8       110.8    
        110.8       110.8       110.8       110.8       110.9       111.2       111.5    



             MODEL LAYER BOTTOM EL. FOR LAYER   2
 READING ON UNIT   12 WITH FORMAT: (FREE)              

            1           2           3           4           5           6           7           8           9          10
           11          12          13          14          15          16          17
 ........................................................................................................................
   1    108.7       108.7       108.7       108.8       108.8       108.9       108.9       109.0       109.0       109.0    
        109.0       109.0       108.9       108.8       108.8       108.7       108.6    
   2    108.7       108.7       108.7       108.8       108.8       108.9       108.9       109.0       109.0       109.0    
        109.0       108.9       108.8       108.8       108.7       108.6       108.6    
   3    108.7       108.7       108.7       108.7       108.8       108.8       108.9       109.0       109.0       109.0    
        108.9       108.8       108.8       108.7       108.6       108.6       108.5    
   4    108.7       108.7       108.7       108.7       108.8       108.8       108.7       108.7       108.8       108.9    
        108.8       108.8       108.7       108.6       108.6       108.5       108.4    
   5    108.7       108.7       108.7       108.6       108.5       108.5       108.4       108.5       108.6       108.6    
        108.7       108.7       108.7       108.6       108.5       108.5       108.4    
   6    108.8       108.8       108.8       108.6       108.2       108.1       108.2       108.3       108.4       108.4    
        108.5       108.6       108.6       108.5       108.5       108.4       108.3    
   7    108.8       108.8       108.9       108.9       108.6       108.2       108.1       108.1       108.2       108.2    
        108.3       108.4       108.5       108.5       108.4       108.3       108.3    
   8    108.9       109.0       109.1       109.2       109.0       108.7       108.4       108.1       108.1       108.2    
        108.2       108.3       108.3       108.4       108.4       108.3       108.2    
   9    109.1       109.2       109.2       109.3       109.3       109.1       108.8       108.5       108.2       108.1    
        108.2       108.2       108.3       108.3       108.2       108.2       108.2    
  10    109.2       109.3       109.3       109.3       109.2       109.1       108.9       108.8       108.6       108.3    
        108.1       108.1       108.2       108.1       108.1       108.1       108.2    
  11    109.3       109.3       109.3       109.3       109.2       109.0       108.9       108.7       108.5       108.4    
        108.2       108.1       108.1       108.1       108.1       108.1       108.2    
  12    109.3       109.3       109.3       109.3       109.2       109.0       108.8       108.7       108.5       108.3    
        108.2       108.1       108.1       108.1       108.1       108.1       108.2    
  13    109.3       109.3       109.3       109.3       109.1       108.9       108.8       108.6       108.5       108.3    
        108.1       108.1       108.1       108.1       108.1       108.1       108.2    
  14    109.3       109.3       109.3       109.2       109.1       108.9       108.7       108.6       108.4       108.2    
        108.1       108.1       108.1       108.1       108.1       108.1       108.1    
  15    109.3       109.3       109.3       109.2       109.0       108.9       108.7       108.5       108.4       108.2    
        108.1       108.1       108.1       108.1       108.1       108.1       108.1    
  16    109.3       109.3       109.3       109.1       109.0       108.8       108.6       108.5       108.3       108.2    
        108.1       108.1       108.1       108.1       108.1       108.1       108.1    
  17    109.3       109.3       109.3       109.1       108.9       108.8       108.6       108.4       108.3       108.1    
        108.1       108.1       108.1       108.1       108.1       108.1       108.1    
  18    109.3       109.3       109.2       109.0       108.9       108.7       108.6       108.4       108.2       108.1    
        108.1       108.1       108.1       108.1       108.1       108.1       108.1    
  19    109.3       109.3       109.2       109.0       108.8       108.7       108.5       108.4       108.2       108.1    
        108.1       108.1       108.1       108.1       108.1       108.1       108.1    
  20    109.3       109.3       109.1       109.0       108.8       108.6       108.5       108.3       108.1       108.1    
        108.1       108.1       108.1       108.1       108.1       108.1       108.1    
  21    109.3       109.2       109.1       108.9       108.8       108.6       108.4       108.3       108.1       108.1    
        108.1       108.1       108.1       108.1       108.1       108.1       108.1    
  22    109.3       109.2       109.0       108.9       108.7       108.5       108.4       108.2       108.1       108.1    
        108.1       108.1       108.1       108.1       108.1       108.1       108.1    



             MODEL LAYER BOTTOM EL. FOR LAYER   3
 READING ON UNIT   12 WITH FORMAT: (FREE)              

            1           2           3           4           5           6           7           8           9          10
           11          12          13          14          15          16          17
 ........................................................................................................................
   1    107.2       107.2       107.2       107.3       107.3       107.4       107.4       107.5       107.5       107.5    
        107.5       107.4       107.4       107.3       107.2       107.1       107.0    
   2    107.2       107.2       107.2       107.2       107.3       107.4       107.4       107.5       107.5       107.5    
        107.4       107.3       107.3       107.2       107.1       107.0       106.9    
   3    107.2       107.2       107.2       107.2       107.3       107.3       107.4       107.5       107.5       107.4    
        107.4       107.3       107.2       107.1       107.0       106.9       106.8    
   4    107.2       107.2       107.2       107.2       107.3       107.3       107.3       107.3       107.2       107.2    
        107.3       107.2       107.1       107.0       106.9       106.8       106.7    
   5    107.2       107.2       107.2       107.1       107.1       107.1       107.1       107.0       106.9       106.9    
        106.8       107.1       107.0       106.9       106.8       106.7       106.6    
   6    107.3       107.3       107.3       107.1       106.9       106.9       106.8       106.7       106.7       106.6    
        106.6       106.5       106.9       106.8       106.8       106.7       106.6    
   7    107.3       107.3       107.3       107.3       107.1       106.8       106.6       106.5       106.4       106.4    
        106.3       106.2       106.2       106.8       106.7       106.6       106.5    
   8    107.3       107.4       107.4       107.4       107.3       107.0       106.7       106.4       106.3       106.2    
        106.1       106.0       106.0       105.9       106.6       106.5       106.4    
   9    107.4       107.4       107.5       107.5       107.4       107.2       106.9       106.6       106.2       106.1    
        106.0       105.9       105.8       105.9       106.1       106.4       106.3    
  10    107.5       107.5       107.5       107.5       107.4       107.1       106.9       106.6       106.4       106.1    
        105.8       105.7       105.8       105.9       106.1       106.2       106.3    
  11    107.5       107.5       107.5       107.5       107.3       107.1       106.8       106.6       106.3       106.1    
        105.8       105.7       105.8       105.9       106.1       106.2       106.3    
  12    107.5       107.5       107.5       107.5       107.2       107.0       106.7       106.5       106.3       106.0    
        105.8       105.6       105.8       105.9       106.0       106.2       106.3    
  13    107.5       107.5       107.5       107.4       107.2       106.9       106.7       106.4       106.2       106.0    
        105.7       105.6       105.7       105.9       106.0       106.1       106.3    
  14    107.5       107.5       107.5       107.3       107.1       106.9       106.6       106.4       106.1       105.9    
        105.6       105.6       105.7       105.8       106.0       106.1       106.3    
  15    107.5       107.5       107.5       107.3       107.0       106.8       106.5       106.3       106.1       105.8    
        105.6       105.6       105.7       105.8       105.9       106.1       106.2    
  16    107.5       107.5       107.4       107.2       107.0       106.7       106.5       106.2       106.0       105.8    
        105.6       105.6       105.6       105.8       105.9       106.0       106.2    
  17    107.5       107.5       107.4       107.1       106.9       106.7       106.4       106.2       105.9       105.7    
        105.6       105.6       105.6       105.7       105.9       106.0       106.2    
  18    107.5       107.5       107.3       107.1       106.8       106.6       106.3       106.1       105.9       105.6    
        105.6       105.6       105.6       105.7       105.8       106.0       106.1    
  19    107.5       107.5       107.2       107.0       106.8       106.5       106.3       106.0       105.8       105.6    
        105.6       105.6       105.6       105.7       105.8       105.9       106.1    
  20    107.5       107.4       107.2       106.9       106.7       106.5       106.2       106.0       105.7       105.6    
        105.6       105.6       105.6       105.6       105.8       105.9       106.1    
  21    107.5       107.4       107.1       106.9       106.6       106.4       106.1       105.9       105.7       105.6    
        105.6       105.6       105.6       105.6       105.7       105.9       106.0    
  22    107.5       107.3       107.0       106.8       106.6       106.3       106.1       105.8       105.6       105.6    
        105.6       105.6       105.6       105.6       105.7       105.8       106.0    



             MODEL LAYER BOTTOM EL. FOR LAYER   4
 READING ON UNIT   12 WITH FORMAT: (FREE)              

            1           2           3           4           5           6           7           8           9          10
           11          12          13          14          15          16          17
 ........................................................................................................................
   1    105.9       105.9       105.9       106.0       106.0       106.0       106.0       106.0       106.0       106.0    
        106.0       105.9       105.7       105.6       105.4       105.2       105.0    
   2    105.9       105.9       105.9       106.0       106.0       106.0       106.0       106.0       106.0       106.0    
        105.9       105.7       105.5       105.4       105.2       105.1       104.9    
   3    105.9       105.9       105.9       105.9       106.0       106.0       106.0       106.0       106.0       105.9    
        105.7       105.6       105.4       105.2       105.1       104.9       104.7    
   4    105.9       105.9       105.9       105.9       106.0       106.0       105.9       105.9       105.8       105.7    
        105.6       105.4       105.3       105.1       104.9       104.8       104.6    
   5    105.9       105.9       105.9       105.9       105.8       105.8       105.7       105.6       105.5       105.4    
        105.3       105.3       105.1       105.0       104.8       104.6       104.4    
   6    105.8       105.8       105.8       105.7       105.7       105.6       105.5       105.4       105.3       105.2    
        105.1       105.0       105.0       104.8       104.6       104.5       104.3    
   7    105.8       105.6       105.3       104.9       104.9       105.1       105.3       105.2       105.1       105.0    
        104.9       104.8       104.7       104.7       104.5       104.3       104.2    
   8    105.3       104.9       104.5       104.1       104.0       104.3       104.6       105.0       104.9       104.8    
        104.7       104.6       104.5       104.4       104.4       104.2       104.0    
   9    104.5       104.1       103.7       103.3       103.3       103.5       103.8       104.2       104.5       104.6    
        104.5       104.4       104.3       104.2       104.1       104.1       103.9    
  10    103.8       103.4       103.3       103.3       103.3       103.4       103.6       103.7       103.8       104.1    
        104.4       104.2       104.1       104.1       104.0       103.9       103.9    
  11    103.3       103.3       103.3       103.3       103.4       103.5       103.6       103.7       103.8       103.9    
        104.0       104.1       104.1       104.0       104.0       103.9       103.9    
  12    103.3       103.3       103.3       103.3       103.4       103.5       103.6       103.7       103.8       104.0    
        104.1       104.1       104.1       104.0       104.0       103.9       103.9    
  13    103.3       103.3       103.3       103.3       103.4       103.5       103.6       103.8       103.9       104.0    
        104.1       104.1       104.1       104.1       104.0       104.0       103.9    
  14    103.3       103.3       103.3       103.3       103.4       103.6       103.7       103.8       103.9       104.0    
        104.1       104.1       104.1       104.1       104.0       104.0       103.9    
  15    103.3       103.3       103.3       103.4       103.5       103.6       103.7       103.8       103.9       104.0    
        104.1       104.1       104.1       104.1       104.0       104.0       103.9    
  16    103.3       103.3       103.3       103.4       103.5       103.6       103.7       103.9       104.0       104.1    
        104.1       104.1       104.1       104.1       104.0       104.0       103.9    
  17    103.3       103.3       103.3       103.4       103.5       103.7       103.8       103.9       104.0       104.1    
        104.1       104.1       104.1       104.1       104.1       104.0       103.9    
  18    103.3       103.3       103.3       103.5       103.6       103.7       103.8       103.9       104.0       104.1    
        104.1       104.1       104.1       104.1       104.1       104.0       104.0    
  19    103.3       103.3       103.4       103.5       103.6       103.7       103.8       103.9       104.1       104.1    
        104.1       104.1       104.1       104.1       104.1       104.0       104.0    
  20    103.3       103.3       103.4       103.5       103.6       103.7       103.9       104.0       104.1       104.1    
        104.1       104.1       104.1       104.1       104.1       104.0       104.0    
  21    103.3       103.3       103.4       103.6       103.7       103.8       103.9       104.0       104.1       104.1    
        104.1       104.1       104.1       104.1       104.1       104.1       104.0    
  22    103.3       103.4       103.5       103.6       103.7       103.8       103.9       104.0       104.1       104.1    
        104.1       104.1       104.1       104.1       104.1       104.1       104.0    



             MODEL LAYER BOTTOM EL. FOR LAYER   5
 READING ON UNIT   12 WITH FORMAT: (FREE)              

            1           2           3           4           5           6           7           8           9          10
           11          12          13          14          15          16          17
 ........................................................................................................................
   1    105.3       105.3       105.3       105.4       105.4       105.4       105.4       105.4       105.4       105.4    
        105.4       105.3       105.1       104.9       104.7       104.5       104.3    
   2    105.3       105.3       105.3       105.3       105.4       105.4       105.4       105.4       105.4       105.4    
        105.2       105.0       104.9       104.7       104.5       104.3       104.1    
   3    105.3       105.3       105.3       105.3       105.4       105.4       105.4       105.4       105.4       105.3    
        105.1       104.9       104.7       104.5       104.3       104.2       103.9    
   4    105.3       105.3       105.3       105.3       105.4       105.4       105.3       105.3       105.1       105.0    
        104.9       104.7       104.5       104.4       104.2       104.0       103.8    
   5    105.4       105.4       105.4       105.3       105.2       105.2       105.1       105.0       104.9       104.7    
        104.6       104.6       104.4       104.2       104.0       103.8       103.6    
   6    105.6       105.6       105.6       105.4       105.1       105.0       104.9       104.7       104.6       104.5    
        104.3       104.2       104.2       104.0       103.9       103.7       103.4    
   7    105.6       105.5       105.0       104.5       104.3       104.4       104.5       104.4       104.3       104.2    
        104.1       104.0       103.8       103.9       103.7       103.5       103.3    
   8    105.0       104.5       104.0       103.4       103.1       103.4       103.6       103.9       103.8       103.7    
        103.6       103.5       103.4       103.4       103.5       103.3       103.1    
   9    104.0       103.5       103.0       102.5       102.3       102.4       102.7       102.9       103.2       103.3    
        103.2       103.1       103.0       103.0       103.1       103.2       103.0    
  10    103.0       102.5       102.3       102.3       102.3       102.3       102.3       102.3       102.3       102.5    
        102.7       102.6       102.6       102.7       102.7       102.9       103.0    
  11    102.3       102.3       102.3       102.3       102.3       102.3       102.3       102.3       102.3       102.3    
        102.3       102.3       102.4       102.6       102.7       102.8       103.0    
  12    102.3       102.3       102.3       102.3       102.3       102.3       102.3       102.3       102.3       102.3    
        102.3       102.3       102.4       102.5       102.7       102.8       103.0    
  13    102.3       102.3       102.3       102.3       102.3       102.3       102.3       102.3       102.3       102.3    
        102.3       102.3       102.4       102.5       102.6       102.8       102.9    
  14    102.3       102.3       102.3       102.3       102.3       102.3       102.3       102.3       102.3       102.3    
        102.3       102.3       102.3       102.5       102.6       102.7       102.9    
  15    102.3       102.3       102.3       102.3       102.3       102.3       102.3       102.3       102.3       102.3    
        102.3       102.3       102.3       102.4       102.6       102.7       102.9    
  16    102.3       102.3       102.3       102.3       102.3       102.3       102.3       102.3       102.3       102.3    
        102.3       102.3       102.3       102.4       102.5       102.7       102.8    
  17    102.3       102.3       102.3       102.3       102.3       102.3       102.3       102.3       102.3       102.3    
        102.3       102.3       102.3       102.4       102.5       102.6       102.8    
  18    102.3       102.3       102.3       102.3       102.3       102.3       102.3       102.3       102.3       102.3    
        102.3       102.3       102.3       102.3       102.5       102.6       102.8    
  19    102.3       102.3       102.3       102.3       102.3       102.3       102.3       102.3       102.3       102.3    
        102.3       102.3       102.3       102.3       102.4       102.6       102.7    
  20    102.3       102.3       102.3       102.3       102.3       102.3       102.3       102.3       102.3       102.3    
        102.3       102.3       102.3       102.3       102.4       102.5       102.7    
  21    102.3       102.3       102.3       102.3       102.3       102.3       102.3       102.3       102.3       102.3    
        102.3       102.3       102.3       102.3       102.4       102.5       102.7    
  22    102.3       102.3       102.3       102.3       102.3       102.3       102.3       102.3       102.3       102.3    
        102.3       102.3       102.3       102.3       102.3       102.5       102.6    


 STRESS PERIOD     LENGTH       TIME STEPS     MULTIPLIER FOR DELT    SS FLAG
 ----------------------------------------------------------------------------
        1         86400.00          1                    1.000         SS
        2         86400.00          1                    1.000         TR
        3         86400.00          1                    1.000         TR
        4         86400.00          1                    1.000         TR
        5         345600.0          4                    1.000         TR
        6         86400.00          1                    1.000         TR
        7         86400.00          1                    1.000         TR
        8         86400.00          1                    1.000         TR
        9         259200.0          3                    1.000         TR
       10         86400.00          1                    1.000         TR
       11         86400.00          1                    1.000         TR
       12         86400.00          1                    1.000         TR
       13         86400.00          1                    1.000         TR
       14         259200.0          3                    1.000         TR
       15         86400.00          1                    1.000         TR
       16         86400.00          1                    1.000         TR
       17         86400.00          1                    1.000         TR
       18         86400.00          1                    1.000         TR
       19         259200.0          3                    1.000         TR
       20         86400.00          1                    1.000         TR
       21         86400.00          1                    1.000         TR
       22         86400.00          1                    1.000         TR
       23         345600.0          4                    1.000         TR
       24         86400.00          1                    1.000         TR
       25         86400.00          1                    1.000         TR
       26         86400.00          1                    1.000         TR
       27         86400.00          1                    1.000         TR
       28         259200.0          3                    1.000         TR
       29         86400.00          1                    1.000         TR
       30         86400.00          1                    1.000         TR
       31         86400.00          1                    1.000         TR
       32         86400.00          1                    1.000         TR
       33         259200.0          3                    1.000         TR
       34         86400.00          1                    1.000         TR
       35         86400.00          1                    1.000         TR
       36         86400.00          1                    1.000         TR
       37         86400.00          1                    1.000         TR
       38         86400.00          1                    1.000         TR
       39         172800.0          2                    1.000         TR
       40         86400.00          1                    1.000         TR
       41         86400.00          1                    1.000         TR
       42         86400.00          1                    1.000         TR
       43         86400.00          1                    1.000         TR
       44         86400.00          1                    1.000         TR
       45         172800.0          2                    1.000         TR
       46         86400.00          1                    1.000         TR
       47         86400.00          1                    1.000         TR
       48         86400.00          1                    1.000         TR
       49         86400.00          1                    1.000         TR
       50         86400.00          1                    1.000         TR
       51         86400.00          1                    1.000         TR
       52         86400.00          1                    1.000         TR
       53         86400.00          1                    1.000         TR
       54         86400.00          1                    1.000         TR
       55         86400.00          1                    1.000         TR
       56         86400.00          1                    1.000         TR
       57         86400.00          1                    1.000         TR
       58         86400.00          1                    1.000         TR
       59         86400.00          1                    1.000         TR
       60         86400.00          1                    1.000         TR
       61         86400.00          1                    1.000         TR
       62         86400.00          1                    1.000         TR
       63         345600.0          4                    1.000         TR
       64         86400.00          1                    1.000         TR
       65         86400.00          1                    1.000         TR
       66         86400.00          1                    1.000         TR
       67         86400.00          1                    1.000         TR
       68         86400.00          1                    1.000         TR
       69         172800.0          2                    1.000         TR
       70         86400.00          1                    1.000         TR
       71         86400.00          1                    1.000         TR
       72         86400.00          1                    1.000         TR
       73         86400.00          1                    1.000         TR
       74         345600.0          4                    1.000         TR
       75         86400.00          1                    1.000         TR
       76         86400.00          1                    1.000         TR
       77         86400.00          1                    1.000         TR
       78         259200.0          3                    1.000         TR
       79         86400.00          1                    1.000         TR
       80         86400.00          1                    1.000         TR
       81         86400.00          1                    1.000         TR
       82         345600.0          4                    1.000         TR
       83         86400.00          1                    1.000         TR
       84         86400.00          1                    1.000         TR
       85         86400.00          1                    1.000         TR
       86         86400.00          1                    1.000         TR
       87         259200.0          3                    1.000         TR
       88         86400.00          1                    1.000         TR
       89         86400.00          1                    1.000         TR
       90         86400.00          1                    1.000         TR
       91         345600.0          4                    1.000         TR
       92         86400.00          1                    1.000         TR
       93         86400.00          1                    1.000         TR
       94         86400.00          1                    1.000         TR
       95         86400.00          1                    1.000         TR
       96         259200.0          3                    1.000         TR
       97         86400.00          1                    1.000         TR
       98         86400.00          1                    1.000         TR
       99         86400.00          1                    1.000         TR
      100         86400.00          1                    1.000         TR
      101         345600.0          4                    1.000         TR
      102         86400.00          1                    1.000         TR
      103         86400.00          1                    1.000         TR
      104         86400.00          1                    1.000         TR
      105         259200.0          3                    1.000         TR
      106         86400.00          1                    1.000         TR
      107         86400.00          1                    1.000         TR
      108         86400.00          1                    1.000         TR
      109         172800.0          2                    1.000         TR
      110         172800.0          2                    1.000         TR
      111         86400.00          1                    1.000         TR
      112         86400.00          1                    1.000         TR
      113         86400.00          1                    1.000         TR
      114         86400.00          1                    1.000         TR
      115         259200.0          3                    1.000         TR
      116         86400.00          1                    1.000         TR
      117         86400.00          1                    1.000         TR
      118         86400.00          1                    1.000         TR
      119         86400.00          1                    1.000         TR
      120         259200.0          3                    1.000         TR
      121         86400.00          1                    1.000         TR
      122         172800.0          2                    1.000         TR
      123         86400.00          1                    1.000         TR
      124         259200.0          3                    1.000         TR
      125         86400.00          1                    1.000         TR
      126         86400.00          1                    1.000         TR
      127         86400.00          1                    1.000         TR
      128         86400.00          1                    1.000         TR
      129         259200.0          3                    1.000         TR
      130         86400.00          1                    1.000         TR
      131         86400.00          1                    1.000         TR
      132         86400.00          1                    1.000         TR

 COMBINED STEADY-STATE AND TRANSIENT SIMULATION




 # Basic Package file created on 07.07.2016 by ModelMuse version 3.7.1.0.        
 THE FREE FORMAT OPTION HAS BEEN SELECTED
 THE PRINTTIME OPTION HAS BEEN SELECTED
 CALCULATE FLOW BETWEEN ADJACENT CONSTANT-HEAD CELLS



                     BOUNDARY ARRAY FOR LAYER   1
 READING ON UNIT   13 WITH FORMAT: (FREE)              

          1     2     3     4     5     6     7     8     9    10    11    12    13    14    15    16    17
 ..........................................................................................................
   1      0     0     0     0     0     0     0     0     0     0     0     0     0     0     0     0     0
   2      1     1     1     1     1     1     1     1     1     1     1     1     1     1     1     1     1
   3      1     1     1     1     1     1     1     1     1     1     1     1     1     1     1     1     1
   4      1     1     1     1     1     1     1     1     1     1     1     1     1     1     1     1     1
   5      1     1     1     1     1     1     1     1     1     1     1     1     1     1     1     1     1
   6      1     1     1     1     1     1     1     1     1     1     1     1     1     1     1     1     1
   7      1     1     1     1     1     1     1     1     1     1     1     1     1     1     1     1     1
   8      1     1     1     1     1     1     1     1     1     1     1     1     1     1     1     1     1
   9      1     1     1     1     1     1     1     1     1     1     1     1     1     1     1     1     1
  10      1     1     1     1     1     1     1     1     1     1     1     1     1     1     1     1     1
  11      1     1     1     1     1     1     1     1     1     1     1     1     1     1     1     1     1
  12      1     1     1     1     1     1     1     1     1     1     1     1     1     1     1     1     1
  13      1     1     1     1     1     1     1     1     1     1     1     1     1     1     1     1     1
  14      1     1     1     1     1     1     1     1     1     1     1     1     1     1     1     1     1
  15      1     1     1     1     1     1     1     1     1     1     1     1     1     1     1     1     1
  16      1     1     1     1     1     1     1     1     1     1     1     1     1     1     1     1     1
  17      1     1     1     1     1     1     1     1     1     1     1     1     1     1     1     1     1
  18      1     1     1     1     1     1     1     1     1     1     1     1     1     1     1     0     0
  19      1     1     1     1     1     1     1     1     1     1     1     1     1     1     0     0     0
  20      1     1     1     1     1     1     1     1     1     1     1     0     0     0     0     0     0
  21      1     1     1     1     1     1     0     0     0     0     0     0     0     0     0     0     0
  22      0     0     0     0     0     0     0     0     0     0     0     0     0     0     0     0     0



                     BOUNDARY ARRAY FOR LAYER   2
 READING ON UNIT   13 WITH FORMAT: (FREE)              

          1     2     3     4     5     6     7     8     9    10    11    12    13    14    15    16    17
 ..........................................................................................................
   1      0     0     0     0     0     0     0     0     0     0     0     0     0     0     0     0     0
   2      1     1     1     1     1     1     1     1     1     1     1     1     1     1     1     1     1
   3      1     1     1     1     1     1     1     1     1     1     1     1     1     1     1     1     1
   4      1     1     1     1     1     1     1     1     1     1     1     1     1     1     1     1     1
   5      1     1     1     1     1     1     1     1     1     1     1     1     1     1     1     1     1
   6      1     1     1     1     1     1     1     1     1     1     1     1     1     1     1     1     1
   7      1     1     1     1     1     1     1     1     1     1     1     1     1     1     1     1     1
   8      1     1     1     1     1     1     1     1     1     1     1     1     1     1     1     1     1
   9      1     1     1     1     1     1     1     1     1     1     1     1     1     1     1     1     1
  10      1     1     1     1     1     1     1     1     1     1     1     1     1     1     1     1     1
  11      1     1     1     1     1     1     1     1     1     1     1     1     1     1     1     1     1
  12      1     1     1     1     1     1     1     1     1     1     1     1     1     1     1     1     1
  13      1     1     1     1     1     1     1     1     1     1     1     1     1     1     1     1     1
  14      1     1     1     1     1     1     1     1     1     1     1     1     1     1     1     1     1
  15      1     1     1     1     1     1     1     1     1     1     1     1     1     1     1     1     1
  16      1     1     1     1     1     1     1     1     1     1     1     1     1     1     1     1     1
  17      1     1     1     1     1     1     1     1     1     1     1     1     1     1     1     1     1
  18      1     1     1     1     1     1     1     1     1     1     1     1     1     1     1     0     0
  19      1     1     1     1     1     1     1     1     1     1     1     1     1     1     0     0     0
  20      1     1     1     1     1     1     1     1     1     1     1     0     0     0     0     0     0
  21      1     1     1     1     1     1     0     0     0     0     0     0     0     0     0     0     0
  22      0     0     0     0     0     0     0     0     0     0     0     0     0     0     0     0     0



                     BOUNDARY ARRAY FOR LAYER   3
 READING ON UNIT   13 WITH FORMAT: (FREE)              

          1     2     3     4     5     6     7     8     9    10    11    12    13    14    15    16    17
 ..........................................................................................................
   1      0     0     0     0     0     0     0     0     0     0     0     0     0     0     0     0     0
   2      1     1     1     1     1     1     1     1     1     1     1     1     1     1     1     1     1
   3      1     1     1     1     1     1     1     1     1     1     1     1     1     1     1     1     1
   4      1     1     1     1     1     1     1     1     1     1     1     1     1     1     1     1     1
   5      1     1     1     1     1     1     1     1     1     1     1     1     1     1     1     1     1
   6      1     1     1     1     1     1     1     1     1     1     1     1     1     1     1     1     1
   7      1     1     1     1     1     1     1     1     1     1     1     1     1     1     1     1     1
   8      1     1     1     1     1     1     1     1     1     1     1     1     1     1     1     1     1
   9      1     1     1     1     1     1     1     1     1     1     1     1     1     1     1     1     1
  10      1     1     1     1     1     1     1     1     1     1     1     1     1     1     1     1     1
  11      1     1     1     1     1     1     1     1     1     1     1     1     1     1     1     1     1
  12      1     1     1     1     1     1     1     1     1     1     1     1     1     1     1     1     1
  13      1     1     1     1     1     1     1     1     1     1     1     1     1     1     1     1     1
  14      1     1     1     1     1     1     1     1     1     1     1     1     1     1     1     1     1
  15      1     1     1     1     1     1     1     1     1     1     1     1     1     1     1     1     1
  16      1     1     1     1     1     1     1     1     1     1     1     1     1     1     1     1     1
  17      1     1     1     1     1     1     1     1     1     1     1     1     1     1     1     1     1
  18      1     1     1     1     1     1     1     1     1     1     1     1     1     1     1     0     0
  19      1     1     1     1     1     1     1     1     1     1     1     1     1     1     0     0     0
  20      1     1     1     1     1     1     1     1     1     1     1     0     0     0     0     0     0
  21      1     1     1     1     1     1     0     0     0     0     0     0     0     0     0     0     0
  22      0     0     0     0     0     0     0     0     0     0     0     0     0     0     0     0     0



                     BOUNDARY ARRAY FOR LAYER   4
 READING ON UNIT   13 WITH FORMAT: (FREE)              

          1     2     3     4     5     6     7     8     9    10    11    12    13    14    15    16    17
 ..........................................................................................................
   1      1     1     1     1     1     1     1     1     1     1     1     1     1     1     1     1     1
   2      1     1     1     1     1     1     1     1     1     1     1     1     1     1     1     1     1
   3      1     1     1     1     1     1     1     1     1     1     1     1     1     1     1     1     1
   4      1     1     1     1     1     1     1     1     1     1     1     1     1     1     1     1     1
   5      1     1     1     1     1     1     1     1     1     1     1     1     1     1     1     1     1
   6      1     1     1     1     1     1     1     1     1     1     1     1     1     1     1     1     1
   7      1     1     1     1     1     1     1     1     1     1     1     1     1     1     1     1     1
   8      1     1     1     1     1     1     1     1     1     1     1     1     1     1     1     1     1
   9      1     1     1     1     1     1     1     1     1     1     1     1     1     1     1     1     1
  10      1     1     1     1     1     1     1     1     1     1     1     1     1     1     1     1     1
  11      1     1     1     1     1     1     1     1     1     1     1     1     1     1     1     1     1
  12      1     1     1     1     1     1     1     1     1     1     1     1     1     1     1     1     1
  13      1     1     1     1     1     1     1     1     1     1     1     1     1     1     1     1     1
  14      1     1     1     1     1     1     1     1     1     1     1     1     1     1     1     1     1
  15      1     1     1     1     1     1     1     1     1     1     1     1     1     1     1     1     1
  16      1     1     1     1     1     1     1     1     1     1     1     1     1     1     1     1     1
  17      1     1     1     1     1     1     1     1     1     1     1     1     1     1     1     1     1
  18      1     1     1     1     1     1     1     1     1     1     1     1     1     1     1     1     1
  19      1     1     1     1     1     1     1     1     1     1     1     1     1     1     1     1     0
  20      1     1     1     1     1     1     1     1     1     1     1     1     1     1     1     0     0
  21      1     1     1     1     1     1     1     1     1     1     1     0     0     0     0     0     0
  22      1     1     1     1     1     0     0     0     0     0     0     0     0     0     0     0     0



                     BOUNDARY ARRAY FOR LAYER   5
 READING ON UNIT   13 WITH FORMAT: (FREE)              

          1     2     3     4     5     6     7     8     9    10    11    12    13    14    15    16    17
 ..........................................................................................................
   1      1     1     1     1     1     1     1     1     1     1     1     1     1     1     1     1     1
   2      1     1     1     1     1     1     1     1     1     1     1     1     1     1     1     1     1
   3      1     1     1     1     1     1     1     1     1     1     1     1     1     1     1     1     1
   4      1     1     1     1     1     1     1     1     1     1     1     1     1     1     1     1     1
   5      1     1     1     1     1     1     1     1     1     1     1     1     1     1     1     1     1
   6      1     1     1     1     1     1     1     1     1     1     1     1     1     1     1     1     1
   7      1     1     1     1     1     1     1     1     1     1     1     1     1     1     1     1     1
   8      1     1     1     1     1     1     1     1     1     1     1     1     1     1     1     1     1
   9      1     1     1     1     1     1     1     1     1     1     1     1     1     1     1     1     1
  10      1     1     1     1     1     1     1     1     1     1     1     1     1     1     1     1     1
  11      1     1     1     1     1     1     1     1     1     1     1     1     1     1     1     1     1
  12      1     1     1     1     1     1     1     1     1     1     1     1     1     1     1     1     1
  13      1     1     1     1     1     1     1     1     1     1     1     1     1     1     1     1     1
  14      1     1     1     1     1     1     1     1     1     1     1     1     1     1     1     1     1
  15      1     1     1     1     1     1     1     1     1     1     1     1     1     1     1     1     1
  16      1     1     1     1     1     1     1     1     1     1     1     1     1     1     1     1     1
  17      1     1     1     1     1     1     1     1     1     1     1     1     1     1     1     1     1
  18      1     1     1     1     1     1     1     1     1     1     1     1     1     1     1     1     1
  19      1     1     1     1     1     1     1     1     1     1     1     1     1     1     1     1     0
  20      1     1     1     1     1     1     1     1     1     1     1     1     1     1     1     0     0
  21      1     1     1     1     1     1     1     1     1     1     1     0     0     0     0     0     0
  22      1     1     1     1     1     0     0     0     0     0     0     0     0     0     0     0     0

 AQUIFER HEAD WILL BE SET TO -2.00000E+20 AT ALL NO-FLOW NODES (IBOUND=0).



                       INITIAL HEAD FOR LAYER   1
 READING ON UNIT   13 WITH FORMAT: (FREE)              

            1           2           3           4           5           6           7           8           9          10
           11          12          13          14          15          16          17
 ........................................................................................................................
   1    110.7       110.7       110.7       110.7       110.7       110.8       110.8       110.8       110.8       110.8    
        110.8       110.7       110.7       110.7       110.7       110.7       110.7    
   2    110.7       110.7       110.7       110.7       110.7       110.8       110.8       110.8       110.8       110.8    
        110.8       110.7       110.7       110.7       110.7       110.7       110.7    
   3    110.7       110.7       110.7       110.7       110.7       110.7       110.8       110.8       110.8       110.8    
        110.7       110.7       110.7       110.7       110.7       110.7       110.7    
   4    110.7       110.7       110.7       110.7       110.7       110.7       110.7       110.7       110.7       110.7    
        110.7       110.7       110.7       110.7       110.7       110.7       110.7    
   5    110.7       110.7       110.7       110.7       110.7       110.7       110.7       110.7       110.7       110.7    
        110.7       110.7       110.7       110.7       110.7       110.7       110.7    
   6    110.7       110.7       110.7       110.7       110.7       110.7       110.7       110.7       110.7       110.7    
        110.7       110.7       110.7       110.7       110.7       110.7       110.7    
   7    110.7       110.7       110.7       110.7       110.7       110.7       110.7       110.7       110.7       110.7    
        110.7       110.7       110.7       110.7       110.7       110.7       110.7    
   8    110.7       110.7       110.7       110.7       110.7       110.7       110.7       110.7       110.7       110.7    
        110.7       110.7       110.7       110.7       110.7       110.7       110.7    
   9    110.7       110.7       110.7       110.7       110.7       110.7       110.7       110.7       110.7       110.7    
        110.7       110.7       110.7       110.7       110.7       110.7       110.7    
  10    110.7       110.7       110.7       110.7       110.7       110.7       110.7       110.7       110.7       110.7    
        110.7       110.7       110.7       110.7       110.7       110.7       110.7    
  11    110.7       110.7       110.7       110.7       110.7       110.7       110.7       110.7       110.7       110.7    
        110.7       110.7       110.7       110.7       110.7       110.7       110.7    
  12    110.7       110.7       110.7       110.7       110.7       110.7       110.7       110.7       110.7       110.7    
        110.7       110.7       110.7       110.7       110.7       110.7       110.7    
  13    110.7       110.7       110.7       110.7       110.7       110.7       110.7       110.7       110.7       110.7    
        110.7       110.7       110.7       110.7       110.7       110.7       110.7    
  14    110.7       110.7       110.7       110.7       110.7       110.7       110.7       110.7       110.7       110.7    
        110.7       110.7       110.7       110.7       110.7       110.7       110.7    
  15    110.7       110.7       110.7       110.7       110.7       110.7       110.7       110.7       110.7       110.7    
        110.7       110.7       110.7       110.7       110.7       110.7       110.7    
  16    110.7       110.7       110.7       110.7       110.7       110.7       110.7       110.7       110.7       110.7    
        110.7       110.7       110.7       110.7       110.7       110.7       110.7    
  17    110.7       110.7       110.7       110.7       110.7       110.7       110.7       110.7       110.7       110.7    
        110.7       110.7       110.7       110.7       110.7       110.7       110.7    
  18    110.7       110.7       110.7       110.7       110.7       110.7       110.7       110.7       110.7       110.7    
        110.7       110.7       110.7       110.7       110.7       110.7       110.7    
  19    110.7       110.7       110.7       110.7       110.7       110.7       110.7       110.7       110.7       110.7    
        110.7       110.7       110.7       110.7       110.7       110.7       110.7    
  20    110.7       110.7       110.7       110.7       110.7       110.7       110.7       110.7       110.7       110.7    
        110.7       110.7       110.7       110.7       110.7       110.7       110.7    
  21    110.7       110.7       110.7       110.7       110.7       110.7       110.7       110.7       110.7       110.7    
        110.7       110.7       110.7       110.7       110.7       110.7       110.7    
  22    110.7       110.7       110.7       110.7       110.7       110.7       110.7       110.7       110.7       110.7    
        110.7       110.7       110.7       110.7       110.7       110.7       110.7    



                       INITIAL HEAD FOR LAYER   2
 READING ON UNIT   13 WITH FORMAT: (FREE)              

            1           2           3           4           5           6           7           8           9          10
           11          12          13          14          15          16          17
 ........................................................................................................................
   1    110.7       110.7       110.7       110.7       110.7       110.8       110.8       110.8       110.8       110.8    
        110.8       110.7       110.7       110.7       110.7       110.7       110.7    
   2    110.7       110.7       110.7       110.7       110.7       110.8       110.8       110.8       110.8       110.8    
        110.8       110.7       110.7       110.7       110.7       110.7       110.7    
   3    110.7       110.7       110.7       110.7       110.7       110.7       110.8       110.8       110.8       110.8    
        110.7       110.7       110.7       110.7       110.7       110.7       110.7    
   4    110.7       110.7       110.7       110.7       110.7       110.7       110.7       110.7       110.7       110.7    
        110.7       110.7       110.7       110.7       110.7       110.7       110.7    
   5    110.7       110.7       110.7       110.7       110.7       110.7       110.7       110.7       110.7       110.7    
        110.7       110.7       110.7       110.7       110.7       110.7       110.7    
   6    110.7       110.7       110.7       110.7       110.7       110.7       110.7       110.7       110.7       110.7    
        110.7       110.7       110.7       110.7       110.7       110.7       110.7    
   7    110.7       110.7       110.7       110.7       110.7       110.7       110.7       110.7       110.7       110.7    
        110.7       110.7       110.7       110.7       110.7       110.7       110.7    
   8    110.7       110.7       110.7       110.7       110.7       110.7       110.7       110.7       110.7       110.7    
        110.7       110.7       110.7       110.7       110.7       110.7       110.7    
   9    110.7       110.7       110.7       110.7       110.7       110.7       110.7       110.7       110.7       110.7    
        110.7       110.7       110.7       110.7       110.7       110.7       110.7    
  10    110.7       110.7       110.7       110.7       110.7       110.7       110.7       110.7       110.7       110.7    
        110.7       110.7       110.7       110.7       110.7       110.7       110.7    
  11    110.7       110.7       110.7       110.7       110.7       110.7       110.7       110.7       110.7       110.7    
        110.7       110.7       110.7       110.7       110.7       110.7       110.7    
  12    110.7       110.7       110.7       110.7       110.7       110.7       110.7       110.7       110.7       110.7    
        110.7       110.7       110.7       110.7       110.7       110.7       110.7    
  13    110.7       110.7       110.7       110.7       110.7       110.7       110.7       110.7       110.7       110.7    
        110.7       110.7       110.7       110.7       110.7       110.7       110.7    
  14    110.7       110.7       110.7       110.7       110.7       110.7       110.7       110.7       110.7       110.7    
        110.7       110.7       110.7       110.7       110.7       110.7       110.7    
  15    110.7       110.7       110.7       110.7       110.7       110.7       110.7       110.7       110.7       110.7    
        110.7       110.7       110.7       110.7       110.7       110.7       110.7    
  16    110.7       110.7       110.7       110.7       110.7       110.7       110.7       110.7       110.7       110.7    
        110.7       110.7       110.7       110.7       110.7       110.7       110.7    
  17    110.7       110.7       110.7       110.7       110.7       110.7       110.7       110.7       110.7       110.7    
        110.7       110.7       110.7       110.7       110.7       110.7       110.7    
  18    110.7       110.7       110.7       110.7       110.7       110.7       110.7       110.7       110.7       110.7    
        110.7       110.7       110.7       110.7       110.7       110.7       110.7    
  19    110.7       110.7       110.7       110.7       110.7       110.7       110.7       110.7       110.7       110.7    
        110.7       110.7       110.7       110.7       110.7       110.7       110.7    
  20    110.7       110.7       110.7       110.7       110.7       110.7       110.7       110.7       110.7       110.7    
        110.7       110.7       110.7       110.7       110.7       110.7       110.7    
  21    110.7       110.7       110.7       110.7       110.7       110.7       110.7       110.7       110.7       110.7    
        110.7       110.7       110.7       110.7       110.7       110.7       110.7    
  22    110.7       110.7       110.7       110.7       110.7       110.7       110.7       110.7       110.7       110.7    
        110.7       110.7       110.7       110.7       110.7       110.7       110.7    



                       INITIAL HEAD FOR LAYER   3
 READING ON UNIT   13 WITH FORMAT: (FREE)              

            1           2           3           4           5           6           7           8           9          10
           11          12          13          14          15          16          17
 ........................................................................................................................
   1    110.7       110.7       110.7       110.7       110.7       110.8       110.8       110.8       110.8       110.8    
        110.8       110.7       110.7       110.7       110.7       110.7       110.7    
   2    110.7       110.7       110.7       110.7       110.7       110.8       110.8       110.8       110.8       110.8    
        110.8       110.7       110.7       110.7       110.7       110.7       110.7    
   3    110.7       110.7       110.7       110.7       110.7       110.7       110.8       110.8       110.8       110.8    
        110.7       110.7       110.7       110.7       110.7       110.7       110.7    
   4    110.7       110.7       110.7       110.7       110.7       110.7       110.7       110.7       110.7       110.7    
        110.7       110.7       110.7       110.7       110.7       110.7       110.7    
   5    110.7       110.7       110.7       110.7       110.7       110.7       110.7       110.7       110.7       110.7    
        110.7       110.7       110.7       110.7       110.7       110.7       110.7    
   6    110.7       110.7       110.7       110.7       110.7       110.7       110.7       110.7       110.7       110.7    
        110.7       110.7       110.7       110.7       110.7       110.7       110.7    
   7    110.7       110.7       110.7       110.7       110.7       110.7       110.7       110.7       110.7       110.7    
        110.7       110.7       110.7       110.7       110.7       110.7       110.7    
   8    110.7       110.7       110.7       110.7       110.7       110.7       110.7       110.7       110.7       110.7    
        110.7       110.7       110.7       110.7       110.7       110.7       110.7    
   9    110.7       110.7       110.7       110.7       110.7       110.7       110.7       110.7       110.7       110.7    
        110.7       110.7       110.7       110.7       110.7       110.7       110.7    
  10    110.7       110.7       110.7       110.7       110.7       110.7       110.7       110.7       110.7       110.7    
        110.7       110.7       110.7       110.7       110.7       110.7       110.7    
  11    110.7       110.7       110.7       110.7       110.7       110.7       110.7       110.7       110.7       110.7    
        110.7       110.7       110.7       110.7       110.7       110.7       110.7    
  12    110.7       110.7       110.7       110.7       110.7       110.7       110.7       110.7       110.7       110.7    
        110.7       110.7       110.7       110.7       110.7       110.7       110.7    
  13    110.7       110.7       110.7       110.7       110.7       110.7       110.7       110.7       110.7       110.7    
        110.7       110.7       110.7       110.7       110.7       110.7       110.7    
  14    110.7       110.7       110.7       110.7       110.7       110.7       110.7       110.7       110.7       110.7    
        110.7       110.7       110.7       110.7       110.7       110.7       110.7    
  15    110.7       110.7       110.7       110.7       110.7       110.7       110.7       110.7       110.7       110.7    
        110.7       110.7       110.7       110.7       110.7       110.7       110.7    
  16    110.7       110.7       110.7       110.7       110.7       110.7       110.7       110.7       110.7       110.7    
        110.7       110.7       110.7       110.7       110.7       110.7       110.7    
  17    110.7       110.7       110.7       110.7       110.7       110.7       110.7       110.7       110.7       110.7    
        110.7       110.7       110.7       110.7       110.7       110.7       110.7    
  18    110.7       110.7       110.7       110.7       110.7       110.7       110.7       110.7       110.7       110.7    
        110.7       110.7       110.7       110.7       110.7       110.7       110.7    
  19    110.7       110.7       110.7       110.7       110.7       110.7       110.7       110.7       110.7       110.7    
        110.7       110.7       110.7       110.7       110.7       110.7       110.7    
  20    110.7       110.7       110.7       110.7       110.7       110.7       110.7       110.7       110.7       110.7    
        110.7       110.7       110.7       110.7       110.7       110.7       110.7    
  21    110.7       110.7       110.7       110.7       110.7       110.7       110.7       110.7       110.7       110.7    
        110.7       110.7       110.7       110.7       110.7       110.7       110.7    
  22    110.7       110.7       110.7       110.7       110.7       110.7       110.7       110.7       110.7       110.7    
        110.7       110.7       110.7       110.7       110.7       110.7       110.7    



                       INITIAL HEAD FOR LAYER   4
 READING ON UNIT   13 WITH FORMAT: (FREE)              

            1           2           3           4           5           6           7           8           9          10
           11          12          13          14          15          16          17
 ........................................................................................................................
   1    110.7       110.7       110.7       110.7       110.7       110.8       110.8       110.8       110.8       110.8    
        110.8       110.7       110.7       110.7       110.7       110.7       110.7    
   2    110.7       110.7       110.7       110.7       110.7       110.8       110.8       110.8       110.8       110.8    
        110.8       110.7       110.7       110.7       110.7       110.7       110.7    
   3    110.7       110.7       110.7       110.7       110.7       110.7       110.8       110.8       110.8       110.8    
        110.7       110.7       110.7       110.7       110.7       110.7       110.7    
   4    110.7       110.7       110.7       110.7       110.7       110.7       110.7       110.7       110.7       110.7    
        110.7       110.7       110.7       110.7       110.7       110.7       110.7    
   5    110.7       110.7       110.7       110.7       110.7       110.7       110.7       110.7       110.7       110.7    
        110.7       110.7       110.7       110.7       110.7       110.7       110.7    
   6    110.7       110.7       110.7       110.7       110.7       110.7       110.7       110.7       110.7       110.7    
        110.7       110.7       110.7       110.7       110.7       110.7       110.7    
   7    110.7       110.7       110.7       110.7       110.7       110.7       110.7       110.7       110.7       110.7    
        110.7       110.7       110.7       110.7       110.7       110.7       110.7    
   8    110.7       110.7       110.7       110.7       110.7       110.7       110.7       110.7       110.7       110.7    
        110.7       110.7       110.7       110.7       110.7       110.7       110.7    
   9    110.7       110.7       110.7       110.7       110.7       110.7       110.7       110.7       110.7       110.7    
        110.7       110.7       110.7       110.7       110.7       110.7       110.7    
  10    110.7       110.7       110.7       110.7       110.7       110.7       110.7       110.7       110.7       110.7    
        110.7       110.7       110.7       110.7       110.7       110.7       110.7    
  11    110.7       110.7       110.7       110.7       110.7       110.7       110.7       110.7       110.7       110.7    
        110.7       110.7       110.7       110.7       110.7       110.7       110.7    
  12    110.7       110.7       110.7       110.7       110.7       110.7       110.7       110.7       110.7       110.7    
        110.7       110.7       110.7       110.7       110.7       110.7       110.7    
  13    110.7       110.7       110.7       110.7       110.7       110.7       110.7       110.7       110.7       110.7    
        110.7       110.7       110.7       110.7       110.7       110.7       110.7    
  14    110.7       110.7       110.7       110.7       110.7       110.7       110.7       110.7       110.7       110.7    
        110.7       110.7       110.7       110.7       110.7       110.7       110.7    
  15    110.7       110.7       110.7       110.7       110.7       110.7       110.7       110.7       110.7       110.7    
        110.7       110.7       110.7       110.7       110.7       110.7       110.7    
  16    110.7       110.7       110.7       110.7       110.7       110.7       110.7       110.7       110.7       110.7    
        110.7       110.7       110.7       110.7       110.7       110.7       110.7    
  17    110.7       110.7       110.7       110.7       110.7       110.7       110.7       110.7       110.7       110.7    
        110.7       110.7       110.7       110.7       110.7       110.7       110.7    
  18    110.7       110.7       110.7       110.7       110.7       110.7       110.7       110.7       110.7       110.7    
        110.7       110.7       110.7       110.7       110.7       110.7       110.7    
  19    110.7       110.7       110.7       110.7       110.7       110.7       110.7       110.7       110.7       110.7    
        110.7       110.7       110.7       110.7       110.7       110.7       110.7    
  20    110.7       110.7       110.7       110.7       110.7       110.7       110.7       110.7       110.7       110.7    
        110.7       110.7       110.7       110.7       110.7       110.7       110.7    
  21    110.7       110.7       110.7       110.7       110.7       110.7       110.7       110.7       110.7       110.7    
        110.7       110.7       110.7       110.7       110.7       110.7       110.7    
  22    110.7       110.7       110.7       110.7       110.7       110.7       110.7       110.7       110.7       110.7    
        110.7       110.7       110.7       110.7       110.7       110.7       110.7    



                       INITIAL HEAD FOR LAYER   5
 READING ON UNIT   13 WITH FORMAT: (FREE)              

            1           2           3           4           5           6           7           8           9          10
           11          12          13          14          15          16          17
 ........................................................................................................................
   1    110.7       110.7       110.7       110.7       110.7       110.8       110.8       110.8       110.8       110.8    
        110.8       110.7       110.7       110.7       110.7       110.7       110.7    
   2    110.7       110.7       110.7       110.7       110.7       110.8       110.8       110.8       110.8       110.8    
        110.8       110.7       110.7       110.7       110.7       110.7       110.7    
[...]
 G13_129         109.76300049        109.71667480       4.63256835938E-02
 G13_130         109.79299927        109.71823120       7.47680664062E-02
 G13_131         109.85299683        109.76178741       9.12094116211E-02
 G13_132         109.83799744        109.75533295       8.26644897461E-02
 G12_1           110.65699768        110.56359863       9.33990478516E-02
 G12_2           110.56199646        110.50927734       5.27191162109E-02
 G12_3           110.48699951        110.43747711       4.95223999023E-02
 G12_4           110.42700195        110.36956787       5.74340820312E-02
 G12_5           109.84700012        109.76737213       7.96279907227E-02
 G12_6           109.76200104        109.65574646       0.10625457764    
 G12_7           109.65200043        109.55091858       0.10108184814    
 G12_8           109.60199738        109.47689056       0.12510681152    
 G12_9           109.42700195        109.30592346       0.12107849121    
 G12_10          109.40699768        109.28385925       0.12313842773    
 G12_11          109.39199829        109.26775360       0.12424468994    
 G12_12          109.37200165        109.25612640       0.11587524414    
 G12_13          109.36199951        109.24639130       0.11560821533    
 G12_14          109.29199982        109.17605591       0.11594390869    
 G12_15          109.31700134        109.20537567       0.11162567139    
 G12_16          109.31199646        109.20459747       0.10739898682    
 G12_17          109.33699799        109.24030304       9.66949462891E-02
 G12_18          109.40699768        109.28803253       0.11896514893    
 G12_19          109.39700317        109.29647827       0.10052490234    
 G12_20          109.39700317        109.29792023       9.90829467773E-02
 G12_21          109.38200378        109.28715515       9.48486328125E-02
 G12_22          109.38200378        109.27979279       0.10221099854    
 G12_23          109.28700256        109.18101501       0.10598754883    
 G12_24          109.27700043        109.19148254       8.55178833008E-02
 G12_25          109.38200378        109.32478333       5.72204589844E-02
 G12_26          109.59700012        109.51287842       8.41217041016E-02
 G12_27          109.73699951        109.66087341       7.61260986328E-02
 G12_28          109.65200043        109.56128693       9.07135009766E-02
 G12_29          109.57700348        109.48995972       8.70437622070E-02
 G12_30          109.53199768        109.43634796       9.56497192383E-02
 G12_31          109.47699738        109.37131500       0.10568237305    
 G12_32          109.42700195        109.32541656       0.10158538818    
 G12_33          109.35199738        109.24636841       0.10562896729    
 G12_34          109.33200073        109.24780273       8.41979980469E-02
 G12_35          109.51699829        109.41512299       0.10187530518    
 G12_36          109.57199860        109.47976685       9.22317504883E-02
 G12_37          109.57199860        109.48274994       8.92486572266E-02
 G12_38          109.53700256        109.46261597       7.43865966797E-02
 G12_39          109.46700287        109.38606262       8.09402465820E-02
 G12_40          109.45700073        109.36894989       8.80508422852E-02
 G12_41          109.49700165        109.42229462       7.47070312500E-02
 G12_42          109.54199982        109.45835876       8.36410522461E-02
 G12_43          109.47200012        109.41313934       5.88607788086E-02
 G12_44          109.52200317        109.43986511       8.21380615234E-02
 G12_45          109.55699921        109.44709778       0.10990142822    
 G12_46          109.54699707        109.49192047       5.50765991211E-02
 G12_47          109.62200165        109.56716919       5.48324584961E-02
 G12_48          109.66699982        109.59333801       7.36618041992E-02
 G12_49          109.58200073        109.51194000       7.00607299805E-02
 G12_50          109.50199890        109.42800903       7.39898681641E-02
 G12_51          109.46700287        109.37660217       9.04006958008E-02
 G12_52          109.41200256        109.32080078       9.12017822266E-02
 G12_53          109.40200043        109.32229614       7.97042846680E-02
 G12_54          109.43699646        109.33563232       0.10136413574    
 G12_55          109.40699768        109.33049011       7.65075683594E-02
 G12_56          109.40699768        109.32485199       8.21456909180E-02
 G12_57          109.43199921        109.35530090       7.66983032227E-02
 G12_58          109.43699646        109.35755920       7.94372558594E-02
 G12_59          109.44699860        109.36585236       8.11462402344E-02
 G12_60          109.46199799        109.37677002       8.52279663086E-02
 G12_61          109.43699646        109.37032318       6.66732788086E-02
 G12_62          109.42700195        109.34817505       7.88269042969E-02
 G12_63          109.36699677        109.28948212       7.75146484375E-02
 G12_64          109.38700104        109.30683136       8.01696777344E-02
 G12_65          109.39700317        109.31571198       8.12911987305E-02
 G12_66          109.42700195        109.35347748       7.35244750977E-02
 G12_67          109.48200226        109.37642670       0.10557556152    
 G12_68          109.50199890        109.42687988       7.51190185547E-02
 G12_69          109.51200104        109.44481659       6.71844482422E-02
 G12_70          109.56199646        109.50718689       5.48095703125E-02
 G12_71          109.67700195        109.61925507       5.77468872070E-02
 G12_72          109.79699707        109.76865387       2.83432006836E-02
 G12_73          109.81700134        109.78850555       2.84957885742E-02
 G12_74          109.82199860        109.79473114       2.72674560547E-02
 G12_75          109.82700348        109.78678131       4.02221679688E-02
 G12_76          109.84200287        109.79611206       4.58908081055E-02
 G12_77          109.83200073        109.79357910       3.84216308594E-02
 G12_78          110.26200104        110.23944855       2.25524902344E-02
 G12_79          110.33200073        110.36149597      -2.94952392578E-02
 G12_80          110.46199799        110.48258209      -2.05841064453E-02
 G12_81          110.40699768        110.44972992      -4.27322387695E-02
 G12_82          110.39700317        110.39202881       4.97436523438E-03
 G12_83          110.43199921        110.41950989       1.24893188477E-02
 G12_84          110.45700073        110.44679260       1.02081298828E-02
 G12_85          110.44400024        110.43463135       9.36889648438E-03
 G12_86          110.43199921        110.41355896       1.84402465820E-02
 G12_87          110.24199677        110.16141510       8.05816650391E-02
 G12_88          110.25199890        110.17474365       7.72552490234E-02
 G12_89          110.23699951        110.18270874       5.42907714844E-02
 G12_90          110.22699738        110.17601776       5.09796142578E-02
 G12_91          110.23699951        110.24180603      -4.80651855469E-03
 G12_92          110.23200226        110.13369751       9.83047485352E-02
 G12_93          109.99199677        109.94747925       4.45175170898E-02
 G12_94          109.90200043        109.85389709       4.81033325195E-02
 G12_95          109.89700317        109.80233002       9.46731567383E-02
 G12_96          109.82199860        109.75897980       6.30187988281E-02
 G12_97          109.85700226        109.78643799       7.05642700195E-02
 G12_98          109.93699646        109.86591339       7.10830688477E-02
 G12_99          109.95700073        109.91072845       4.62722778320E-02
 G12_100         110.01200104        109.95573425       5.62667846680E-02
 G12_101         110.17700195        110.16299438       1.40075683594E-02
 G12_102         110.16699982        110.16098785       6.01196289062E-03
 G12_103         110.28450012        110.24140930       4.30908203125E-02
 G12_104         110.40200043        110.41174316      -9.74273681641E-03
 G12_105         110.76699829        110.75609589       1.09024047852E-02
 G12_106         110.74199677        110.74736023      -5.36346435547E-03
 G12_107         110.70200348        110.72780609      -2.58026123047E-02
 G12_108         110.65699768        110.62069702       3.63006591797E-02
 G12_109         110.47200012        110.42190552       5.00946044922E-02
 G12_110         110.25700378        110.17815399       7.88497924805E-02
 G12_111         110.16699982        110.12532043       4.16793823242E-02
 G12_112         110.16699982        110.06992340       9.70764160156E-02
 G12_113         110.10199738        110.01647186       8.55255126953E-02
 G12_114         110.03700256        109.96375275       7.32498168945E-02
 G12_115         109.98200226        109.91699982       6.50024414062E-02
 G12_116         109.98699951        109.91367340       7.33261108398E-02
 G12_117         110.02200317        109.94649506       7.55081176758E-02
 G12_118         110.02700043        109.96424866       6.27517700195E-02
 G12_119         109.99700165        109.95383453       4.31671142578E-02
 G12_120         109.96700287        109.90120697       6.57958984375E-02
 G12_121         109.95700073        109.88655090       7.04498291016E-02
 G12_122         110.09700012        110.03607178       6.09283447266E-02
 G12_123         110.14700317        110.10976410       3.72390747070E-02
 G12_124         110.03700256        109.97528076       6.17218017578E-02
 G12_125         109.99700165        109.92749023       6.95114135742E-02
 G12_126         109.97699738        109.90681458       7.01828002930E-02
 G12_127         109.97200012        109.90070343       7.12966918945E-02
 G12_128         109.93699646        109.87434387       6.26525878906E-02
 G12_129         109.68699646        109.72505951      -3.80630493164E-02
 G12_130         109.78700256        109.72303009       6.39724731445E-02
 G12_131         109.85700226        109.76432800       9.26742553711E-02
 G12_132         109.84200287        109.76090240       8.11004638672E-02
 G21_1           110.63400269        110.52424622       0.10975646973    
 G21_2           110.54399872        110.46571350       7.82852172852E-02
 G21_3           110.47399902        110.38771820       8.62808227539E-02
 G21_4           110.40899658        110.32083893       8.81576538086E-02
 G21_5           109.81900024        109.67578888       0.14321136475    
 G21_6           109.74900055        109.56510162       0.18389892578    
 G21_7           109.63400269        109.46118164       0.17282104492    
 G21_8           109.58399963        109.38905334       0.19494628906    
 G21_9           109.41899872        109.22647858       0.19252014160    
 G21_10          109.39399719        109.21527100       0.17872619629    
 G21_11          109.38400269        109.20143890       0.18256378174    
 G21_12          109.36399841        109.19362640       0.17037200928    
 G21_13          109.35399628        109.18497467       0.16902160645    
 G21_14          109.27899933        109.10886383       0.17013549805    
 G21_15          109.30899811        109.15605164       0.15294647217    
 G21_16          109.29900360        109.15061951       0.14838409424    
 G21_17          109.32900238        109.20160675       0.12739562988    
 G21_18          109.39900208        109.25056458       0.14843750000    
 G21_19          109.38400269        109.24873352       0.13526916504    
 G21_20          109.38899994        109.25227356       0.13672637939    
 G21_21          109.36900330        109.23673248       0.13227081299    
 G21_22          109.37400055        109.22912598       0.14487457275    
 G21_23          109.27400208        109.12046814       0.15353393555    
 G21_24          109.26399994        109.14768982       0.11631011963    
 G21_25          109.36900330        109.32405090       4.49523925781E-02
 G21_26          109.59400177        109.55065155       4.33502197266E-02
 G21_27          109.72399902        109.69097137       3.30276489258E-02
 G21_28          109.63400269        109.49146271       0.14253997803    
 G21_29          109.56400299        109.41739655       0.14660644531    
 G21_30          109.51899719        109.36599731       0.15299987793    
 G21_31          109.46399689        109.29628754       0.16770935059    
 G21_32          109.40399933        109.25920868       0.14479064941    
 G21_33          109.33899689        109.18640900       0.15258789062    
 G21_34          109.31900024        109.19918060       0.11981964111    
 G21_35          109.54900360        109.42905426       0.11994934082    
 G21_36          109.55400085        109.46257019       9.14306640625E-02
 G21_37          109.51399994        109.44638824       6.76116943359E-02
 G21_38          109.53399658        109.41648102       0.11751556396    
 G21_39          109.45899963        109.32983398       0.12916564941    
 G21_40          109.44899750        109.31958008       0.12941741943    
 G21_41          109.48899841        109.40314484       8.58535766602E-02
 G21_42          109.52899933        109.43086243       9.81369018555E-02
 G21_43          109.46399689        109.36008453       0.10391235352    
 G21_44          109.51399994        109.41077423       0.10322570801    
 G21_45          109.55899811        109.40083313       0.15816497803    
 G21_46          109.53900146        109.47779846       6.12030029297E-02
 G21_47          109.61399841        109.56836700       4.56314086914E-02
 G21_48          109.65899658        109.57138062       8.76159667969E-02
 G21_49          109.56900024        109.44263458       0.12636566162    
 G21_50          109.48899841        109.35637665       0.13262176514    
 G21_51          109.45400238        109.31383514       0.14016723633    
 G21_52          109.39900208        109.25652313       0.14247894287    
 G21_53          109.39399719        109.27964783       0.11434936523    
 G21_54          109.42400360        109.29159546       0.13240814209    
 G21_55          109.39900208        109.28848267       0.11051940918    
 G21_56          109.39399719        109.28469849       0.10929870605    
 G21_57          109.42400360        109.32386780       0.10013580322    
 G21_58          109.42900085        109.32257843       0.10642242432    
 G21_59          109.43900299        109.32907867       0.10992431641    
 G21_60          109.45400238        109.33919525       0.11480712891    
 G21_61          109.43399811        109.33174133       0.10225677490    
 G21_62          109.40899658        109.30191803       0.10707855225    
 G21_63          109.35900116        109.24390411       0.11509704590    
 G21_64          109.38400269        109.27005005       0.11395263672    
 G21_65          109.39900208        109.27700806       0.12199401855    
 G21_66          109.42400360        109.32791138       9.60922241211E-02
 G21_67          109.45400238        109.36208344       9.19189453125E-02
 G21_68          109.49900055        109.40843964       9.05609130859E-02
 G21_69          109.50399780        109.41076660       9.32312011719E-02
 G21_70          109.55400085        109.50511932       4.88815307617E-02
 G21_71          109.66899872        109.63954163       2.94570922852E-02
 G21_72          109.79900360        109.81383514      -1.48315429688E-02
 G21_73          109.83399963        109.78556824       4.84313964844E-02
 G21_74          109.82900238        109.77935791       4.96444702148E-02
 G21_75          109.82399750        109.76420593       5.97915649414E-02
 G21_76          109.82900238        109.77745819       5.15441894531E-02
 G21_77          109.81400299        109.77469635       3.93066406250E-02
 G21_78          110.26899719        110.29916382      -3.01666259766E-02
 G21_79          110.32399750        110.42615509      -0.10215759277    
 G21_80          110.45400238        110.54546356      -9.14611816406E-02
 G21_81          110.40399933        110.44933319      -4.53338623047E-02
 G21_82          110.37400055        110.38784790      -1.38473510742E-02
 G21_83          110.42400360        110.42781067      -3.80706787109E-03
 G21_84          110.44400024        110.45264435      -8.64410400391E-03
 G21_85          110.42900085        110.42738342       1.61743164062E-03
 G21_86          110.41400146        110.40094757       1.30538940430E-02
 G21_87          110.21900177        110.08861542       0.13038635254    
 G21_88          110.23899841        110.14836884       9.06295776367E-02
 G21_89          110.22399902        110.16152954       6.24694824219E-02
 G21_90          110.20400238        110.15126038       5.27420043945E-02
 G21_91          110.23400116        110.23734283      -3.34167480469E-03
 G21_92          110.20400238        110.05017090       0.15383148193    
 G21_93          109.98100281        109.83782959       0.14317321777    
 G21_94          109.87400055        109.78565216       8.83483886719E-02
 G21_95          109.87400055        109.73794556       0.13605499268    
 G21_96          109.80899811        109.72190094       8.70971679688E-02
 G21_97          109.84400177        109.76335907       8.06427001953E-02
 G21_98          109.92900085        109.86451721       6.44836425781E-02
 G21_99          109.94899750        109.90401459       4.49829101562E-02
 G21_100         110.00399780        109.94947052       5.45272827148E-02
 G21_101         110.16899872        110.14273834       2.62603759766E-02
 G21_102         110.16400146        110.15029144       1.37100219727E-02
 G21_103         110.28150177        110.25833130       2.31704711914E-02
 G21_104         110.39900208        110.48725128      -8.82492065430E-02
 G21_105         110.73400116        110.80234528      -6.83441162109E-02
 G21_106         110.72899628        110.75238800      -2.33917236328E-02
 G21_107         110.71399689        110.72301483      -9.01794433594E-03
 G21_108         110.62400055        110.57224274       5.17578125000E-02
 G21_109         110.44400024        110.36165619       8.23440551758E-02
 G21_110         110.23400116        110.08213043       0.15187072754    
 G21_111         110.11399841        110.04318237       7.08160400391E-02
 G21_112         110.13899994        110.00292206       0.13607788086    
 G21_113         110.08399963        109.95513153       0.12886810303    
 G21_114         110.01899719        109.90387726       0.11511993408    
 G21_115         109.97399902        109.87899780       9.50012207031E-02
 G21_116         109.97399902        109.87699890       9.70001220703E-02
 G21_117         110.00399780        109.92349243       8.05053710938E-02
 G21_118         110.01399994        109.93868256       7.53173828125E-02
 G21_119         109.98400116        109.92327118       6.07299804688E-02
 G21_120         109.95400238        109.85848236       9.55200195312E-02
 G21_121         109.94400024        109.84670258       9.72976684570E-02
 G21_122         110.07900238        110.04485321       3.41491699219E-02
 G21_123         110.13899994        110.12002563       1.89743041992E-02
 G21_124         109.98400116        109.91465759       6.93435668945E-02
 G21_125         109.97399902        109.87262726       0.10137176514    
 G21_126         109.96399689        109.86300659       0.10099029541    
 G21_127         109.95400238        109.86190033       9.21020507812E-02
 G21_128         109.91899872        109.83129120       8.77075195312E-02
 G21_129         109.77400208        109.66764832       0.10635375977    
 G21_130         109.78399658        109.68634796       9.76486206055E-02
 G21_131         109.84400177        109.74097443       0.10302734375    
 G21_132         109.82399750        109.72051239       0.10348510742    

 HEAD/DRAWDOWN SUM OF SQUARED DIFFERENCE:    1.24836E+01

 Run end date and time (yyyy/mm/dd hh:mm:ss): 2016/07/07 12:14:55
 Elapsed run time:  2.000 Seconds

