Running 1_2-LayerNumbers.py 100
FloPy is using the following executable to run the model: /usr/bin/mf2005

                                  MODFLOW-2005     
    U.S. GEOLOGICAL SURVEY MODULAR FINITE-DIFFERENCE GROUND-WATER FLOW MODEL
                             Version 1.11.00 8/8/2013                        

 Using NAME file: performance_test.nam 
 Run start date and time (yyyy/mm/dd hh:mm:ss): 2016/07/11 12:09:12

 Solving:  Stress period:     1    Time step:     1    Ground-Water Flow Eqn.
 Solving:  Stress period:     2    Time step:     1    Ground-Water Flow Eqn.
 Solving:  Stress period:     3    Time step:     1    Ground-Water Flow Eqn.
 Solving:  Stress period:     4    Time step:     1    Ground-Water Flow Eqn.
 Solving:  Stress period:     5    Time step:     1    Ground-Water Flow Eqn.
 Solving:  Stress period:     6    Time step:     1    Ground-Water Flow Eqn.
 Solving:  Stress period:     7    Time step:     1    Ground-Water Flow Eqn.
 Solving:  Stress period:     8    Time step:     1    Ground-Water Flow Eqn.
 Solving:  Stress period:     9    Time step:     1    Ground-Water Flow Eqn.
 Solving:  Stress period:    10    Time step:     1    Ground-Water Flow Eqn.
 Solving:  Stress period:    11    Time step:     1    Ground-Water Flow Eqn.
 Solving:  Stress period:    12    Time step:     1    Ground-Water Flow Eqn.
 Solving:  Stress period:    13    Time step:     1    Ground-Water Flow Eqn.
 Solving:  Stress period:    14    Time step:     1    Ground-Water Flow Eqn.
 Solving:  Stress period:    15    Time step:     1    Ground-Water Flow Eqn.
 Solving:  Stress period:    16    Time step:     1    Ground-Water Flow Eqn.
 Solving:  Stress period:    17    Time step:     1    Ground-Water Flow Eqn.
 Solving:  Stress period:    18    Time step:     1    Ground-Water Flow Eqn.
 Solving:  Stress period:    19    Time step:     1    Ground-Water Flow Eqn.
 Solving:  Stress period:    20    Time step:     1    Ground-Water Flow Eqn.
 Solving:  Stress period:    21    Time step:     1    Ground-Water Flow Eqn.
 Solving:  Stress period:    22    Time step:     1    Ground-Water Flow Eqn.
 Solving:  Stress period:    23    Time step:     1    Ground-Water Flow Eqn.
 Solving:  Stress period:    24    Time step:     1    Ground-Water Flow Eqn.
 Solving:  Stress period:    25    Time step:     1    Ground-Water Flow Eqn.
 Solving:  Stress period:    26    Time step:     1    Ground-Water Flow Eqn.
 Solving:  Stress period:    27    Time step:     1    Ground-Water Flow Eqn.
 Solving:  Stress period:    28    Time step:     1    Ground-Water Flow Eqn.
 Solving:  Stress period:    29    Time step:     1    Ground-Water Flow Eqn.
 Solving:  Stress period:    30    Time step:     1    Ground-Water Flow Eqn.
 Solving:  Stress period:    31    Time step:     1    Ground-Water Flow Eqn.
 Solving:  Stress period:    32    Time step:     1    Ground-Water Flow Eqn.
 Solving:  Stress period:    33    Time step:     1    Ground-Water Flow Eqn.
 Solving:  Stress period:    34    Time step:     1    Ground-Water Flow Eqn.
 Solving:  Stress period:    35    Time step:     1    Ground-Water Flow Eqn.
 Solving:  Stress period:    36    Time step:     1    Ground-Water Flow Eqn.
 Solving:  Stress period:    37    Time step:     1    Ground-Water Flow Eqn.
 Solving:  Stress period:    38    Time step:     1    Ground-Water Flow Eqn.
 Solving:  Stress period:    39    Time step:     1    Ground-Water Flow Eqn.
 Solving:  Stress period:    40    Time step:     1    Ground-Water Flow Eqn.
 Solving:  Stress period:    41    Time step:     1    Ground-Water Flow Eqn.
 Solving:  Stress period:    42    Time step:     1    Ground-Water Flow Eqn.
 Solving:  Stress period:    43    Time step:     1    Ground-Water Flow Eqn.
 Solving:  Stress period:    44    Time step:     1    Ground-Water Flow Eqn.
 Solving:  Stress period:    45    Time step:     1    Ground-Water Flow Eqn.
 Solving:  Stress period:    46    Time step:     1    Ground-Water Flow Eqn.
 Solving:  Stress period:    47    Time step:     1    Ground-Water Flow Eqn.
 Solving:  Stress period:    48    Time step:     1    Ground-Water Flow Eqn.
 Solving:  Stress period:    49    Time step:     1    Ground-Water Flow Eqn.
 Solving:  Stress period:    50    Time step:     1    Ground-Water Flow Eqn.
 Solving:  Stress period:    51    Time step:     1    Ground-Water Flow Eqn.
 Solving:  Stress period:    52    Time step:     1    Ground-Water Flow Eqn.
 Solving:  Stress period:    53    Time step:     1    Ground-Water Flow Eqn.
 Solving:  Stress period:    54    Time step:     1    Ground-Water Flow Eqn.
 Solving:  Stress period:    55    Time step:     1    Ground-Water Flow Eqn.
 Solving:  Stress period:    56    Time step:     1    Ground-Water Flow Eqn.
 Solving:  Stress period:    57    Time step:     1    Ground-Water Flow Eqn.
 Solving:  Stress period:    58    Time step:     1    Ground-Water Flow Eqn.
 Solving:  Stress period:    59    Time step:     1    Ground-Water Flow Eqn.
 Solving:  Stress period:    60    Time step:     1    Ground-Water Flow Eqn.
 Solving:  Stress period:    61    Time step:     1    Ground-Water Flow Eqn.
 Solving:  Stress period:    62    Time step:     1    Ground-Water Flow Eqn.
 Solving:  Stress period:    63    Time step:     1    Ground-Water Flow Eqn.
 Solving:  Stress period:    64    Time step:     1    Ground-Water Flow Eqn.
 Solving:  Stress period:    65    Time step:     1    Ground-Water Flow Eqn.
 Solving:  Stress period:    66    Time step:     1    Ground-Water Flow Eqn.
 Solving:  Stress period:    67    Time step:     1    Ground-Water Flow Eqn.
 Solving:  Stress period:    68    Time step:     1    Ground-Water Flow Eqn.
 Solving:  Stress period:    69    Time step:     1    Ground-Water Flow Eqn.
 Solving:  Stress period:    70    Time step:     1    Ground-Water Flow Eqn.
 Solving:  Stress period:    71    Time step:     1    Ground-Water Flow Eqn.
 Solving:  Stress period:    72    Time step:     1    Ground-Water Flow Eqn.
 Solving:  Stress period:    73    Time step:     1    Ground-Water Flow Eqn.
 Solving:  Stress period:    74    Time step:     1    Ground-Water Flow Eqn.
 Solving:  Stress period:    75    Time step:     1    Ground-Water Flow Eqn.
 Solving:  Stress period:    76    Time step:     1    Ground-Water Flow Eqn.
 Solving:  Stress period:    77    Time step:     1    Ground-Water Flow Eqn.
 Solving:  Stress period:    78    Time step:     1    Ground-Water Flow Eqn.
 Solving:  Stress period:    79    Time step:     1    Ground-Water Flow Eqn.
 Solving:  Stress period:    80    Time step:     1    Ground-Water Flow Eqn.
 Solving:  Stress period:    81    Time step:     1    Ground-Water Flow Eqn.
 Solving:  Stress period:    82    Time step:     1    Ground-Water Flow Eqn.
 Solving:  Stress period:    83    Time step:     1    Ground-Water Flow Eqn.
 Solving:  Stress period:    84    Time step:     1    Ground-Water Flow Eqn.
 Solving:  Stress period:    85    Time step:     1    Ground-Water Flow Eqn.
 Solving:  Stress period:    86    Time step:     1    Ground-Water Flow Eqn.
 Solving:  Stress period:    87    Time step:     1    Ground-Water Flow Eqn.
 Solving:  Stress period:    88    Time step:     1    Ground-Water Flow Eqn.
 Solving:  Stress period:    89    Time step:     1    Ground-Water Flow Eqn.
 Solving:  Stress period:    90    Time step:     1    Ground-Water Flow Eqn.
 Solving:  Stress period:    91    Time step:     1    Ground-Water Flow Eqn.
 Solving:  Stress period:    92    Time step:     1    Ground-Water Flow Eqn.
 Solving:  Stress period:    93    Time step:     1    Ground-Water Flow Eqn.
 Solving:  Stress period:    94    Time step:     1    Ground-Water Flow Eqn.
 Solving:  Stress period:    95    Time step:     1    Ground-Water Flow Eqn.
 Solving:  Stress period:    96    Time step:     1    Ground-Water Flow Eqn.
 Solving:  Stress period:    97    Time step:     1    Ground-Water Flow Eqn.
 Solving:  Stress period:    98    Time step:     1    Ground-Water Flow Eqn.
 Solving:  Stress period:    99    Time step:     1    Ground-Water Flow Eqn.
 Solving:  Stress period:   100    Time step:     1    Ground-Water Flow Eqn.
 Run end date and time (yyyy/mm/dd hh:mm:ss): 2016/07/11 12:09:13
 Elapsed run time:  0.775 Seconds

  Normal termination of simulation
Time writing input: 0:00:00.166010
Calculation Time: 0:00:00.949054
