                                  MODFLOW-2005     
      U.S. GEOLOGICAL SURVEY MODULAR FINITE-DIFFERENCE GROUND-WATER FLOW MODEL
                            VERSION 1.11.00 8/8/2013

 LIST FILE: Model_for_Pirna.lst
                         UNIT   11

 OPENING Model_for_Pirna.cbc
 FILE TYPE:DATA(BINARY)   UNIT    9   STATUS:REPLACE
 FORMAT:UNFORMATTED            ACCESS:STREAM              

 OPENING Model_for_Pirna.dis
 FILE TYPE:DIS   UNIT   12   STATUS:OLD    
 FORMAT:FORMATTED              ACCESS:SEQUENTIAL          

 OPENING Model_for_Pirna.bas
 FILE TYPE:BAS6   UNIT   13   STATUS:OLD    
 FORMAT:FORMATTED              ACCESS:SEQUENTIAL          

 OPENING Model_for_Pirna.oc
 FILE TYPE:OC   UNIT   39   STATUS:OLD    
 FORMAT:FORMATTED              ACCESS:SEQUENTIAL          

 OPENING Model_for_Pirna.fhd
 FILE TYPE:DATA   UNIT   37   STATUS:REPLACE
 FORMAT:FORMATTED              ACCESS:SEQUENTIAL          

 OPENING Model_for_Pirna.fdn
 FILE TYPE:DATA   UNIT   38   STATUS:REPLACE
 FORMAT:FORMATTED              ACCESS:SEQUENTIAL          

 OPENING Model_for_Pirna.pcg
 FILE TYPE:PCG   UNIT   18   STATUS:OLD    
 FORMAT:FORMATTED              ACCESS:SEQUENTIAL          

 OPENING Model_for_Pirna.lpf
 FILE TYPE:LPF   UNIT   14   STATUS:OLD    
 FORMAT:FORMATTED              ACCESS:SEQUENTIAL          

 OPENING Model_for_Pirna.chd
 FILE TYPE:CHD   UNIT   17   STATUS:OLD    
 FORMAT:FORMATTED              ACCESS:SEQUENTIAL          

 OPENING Model_for_Pirna.rch
 FILE TYPE:RCH   UNIT   24   STATUS:OLD    
 FORMAT:FORMATTED              ACCESS:SEQUENTIAL          

 OPENING Model_for_Pirna.ob_hob
 FILE TYPE:HOB   UNIT   41   STATUS:OLD    
 FORMAT:FORMATTED              ACCESS:SEQUENTIAL          

 OPENING Model_for_Pirna.hob_out
 FILE TYPE:DATA   UNIT   42   STATUS:REPLACE
 FORMAT:FORMATTED              ACCESS:SEQUENTIAL          

 BAS -- BASIC PACKAGE, VERSION 7, 5/2/2005 INPUT READ FROM UNIT   13

 MODFLOW was compiled using mixed precision
 Precision of REAL variables:           6
 Precision of DOUBLE PRECISION variables:          15

 DISCRETIZATION INPUT DATA READ FROM UNIT   12
 # Discretization File created on 07.07.2016 by ModelMuse version 3.7.1.0.
 # Upper left corner: (5424432.68948751, 5648440.1473251)
 # Lower left corner: (5424432.68948751, 5648260.1473251)
 # Upper right corner: (5424572.4672653, 5648440.1473251)
 # Lower right corner: (5424572.4672653, 5648260.1473251)
 # Grid angle (in degrees counterclockwise): 0
    5 LAYERS        45 ROWS        35 COLUMNS
  132 STRESS PERIOD(S) IN SIMULATION
 MODEL TIME UNIT IS SECONDS
 MODEL LENGTH UNIT IS METERS
  Confining bed flag for each layer:
   0   0   0   0   0



                               DELR
 READING ON UNIT   12 WITH FORMAT: (FREE)              
   4.0000       4.0000       4.0000       4.0000       4.0000    
   4.0000       4.0000       4.0000       4.0000       4.0000    
   4.0000       4.0000       4.0000       4.0000       4.0000    
   4.0000       4.0000       4.0000       4.0000       4.0000    
   4.0000       4.0000       4.0000       4.0000       4.0000    
   4.0000       4.0000       4.0000       4.0000       4.0000    
   4.0000       4.0000       4.0000       4.0000       3.7778    



                               DELC
 READING ON UNIT   12 WITH FORMAT: (FREE)              
   4.0000       4.0000       4.0000       4.0000       4.0000    
   4.0000       4.0000       4.0000       4.0000       4.0000    
   4.0000       4.0000       4.0000       4.0000       4.0000    
   4.0000       4.0000       4.0000       4.0000       4.0000    
   4.0000       4.0000       4.0000       4.0000       4.0000    
   4.0000       4.0000       4.0000       4.0000       4.0000    
   4.0000       4.0000       4.0000       4.0000       4.0000    
   4.0000       4.0000       4.0000       4.0000       4.0000    
   4.0000       4.0000       4.0000       4.0000       4.0000    



           TOP ELEVATION OF LAYER 1
 READING ON UNIT   12 WITH FORMAT: (FREE)              

            1           2           3           4           5           6           7           8           9          10
           11          12          13          14          15          16          17          18          19          20
           21          22          23          24          25          26          27          28          29          30
           31          32          33          34          35
 ........................................................................................................................
   1    119.3       119.3       119.3       119.3       119.3       119.3       119.3       119.3       119.3       119.3    
        119.3       119.3       119.3       119.3       119.3       119.3       119.3       119.3       119.3       119.3    
        119.3       119.3       119.2       119.1       119.0       118.9       118.7       118.6       118.5       118.4    
        118.3       118.1       118.0       117.9       117.8    
   2    119.3       119.3       119.3       119.3       119.3       119.3       119.3       119.3       119.3       119.3    
        119.3       119.3       119.3       119.3       119.3       119.3       119.3       119.3       119.3       119.3    
        119.3       119.2       119.1       119.0       118.9       118.8       118.6       118.5       118.4       118.3    
        118.2       118.0       117.9       117.8       117.7    
   3    119.3       119.3       119.3       119.3       119.3       119.3       119.3       119.3       119.3       119.3    
        119.3       119.3       119.3       119.3       119.3       119.3       119.3       119.3       119.3       119.3    
        119.2       119.1       119.0       118.9       118.8       118.6       118.5       118.4       118.3       118.2    
        118.1       117.9       117.8       117.7       117.6    
   4    119.3       119.3       119.3       119.3       119.3       119.3       119.3       119.3       119.3       119.3    
        119.3       119.3       119.3       119.3       119.3       119.3       119.3       119.3       119.3       119.2    
        119.1       119.0       118.9       118.8       118.7       118.5       118.4       118.3       118.2       118.1    
        117.9       117.8       117.7       117.6       117.5    
   5    119.3       119.3       119.3       119.3       119.3       119.3       119.3       119.3       119.3       119.3    
        119.3       119.3       119.3       119.3       119.3       119.3       119.3       119.3       119.3       119.1    
        119.0       118.9       118.8       118.7       118.6       118.4       118.3       118.2       118.1       118.0    
        117.8       117.7       117.6       117.5       117.4    
   6    119.3       119.3       119.3       119.3       119.3       119.3       119.3       119.3       119.3       119.3    
        119.3       119.3       119.3       119.3       119.3       119.3       119.3       119.3       119.2       119.0    
        118.9       118.8       118.7       118.6       118.4       118.3       118.2       118.1       118.0       117.9    
        117.7       117.6       117.5       117.4       117.3    
   7    119.3       119.3       119.3       119.3       119.3       119.3       119.3       119.3       119.3       119.3    
        119.3       119.3       119.3       119.3       119.3       119.3       119.2       119.1       119.0       118.9    
        118.8       118.7       118.6       118.5       118.3       118.2       118.1       118.0       117.9       117.7    
        117.6       117.5       117.4       117.3       117.2    
   8    119.3       119.3       119.3       119.3       119.3       119.3       119.3       119.3       119.3       119.3    
        119.3       119.3       119.3       119.3       119.2       119.2       119.1       119.0       118.9       118.8    
        118.7       118.6       118.5       118.3       118.2       118.1       118.0       117.9       117.8       117.6    
        117.5       117.4       117.3       117.2       117.0    
   9    119.3       119.3       119.3       119.3       119.3       119.3       119.3       119.3       119.3       119.3    
        119.3       119.3       119.2       119.2       119.2       119.1       119.0       118.9       118.8       118.7    
        118.6       118.5       118.4       118.2       118.1       118.0       117.9       117.8       117.6       117.5    
        117.4       117.3       117.2       117.1       116.9    
  10    119.4       119.4       119.4       119.4       119.3       119.3       119.3       119.3       119.3       119.2    
        119.2       119.2       119.1       119.1       119.0       118.9       118.8       118.7       118.6       118.5    
        118.4       118.4       118.3       118.1       118.0       117.9       117.8       117.7       117.5       117.4    
        117.3       117.2       117.1       117.0       116.8    
  11    119.4       119.4       119.4       119.4       119.4       119.4       119.3       119.2       119.2       119.2    
        119.1       119.1       119.1       119.0       118.9       118.8       118.7       118.6       118.5       118.4    
        118.3       118.2       118.1       118.0       117.9       117.8       117.7       117.6       117.4       117.3    
        117.2       117.1       117.0       116.8       116.7    
  12    119.5       119.5       119.5       119.5       119.4       119.4       119.4       119.3       119.2       119.1    
        119.1       119.0       118.9       118.8       118.7       118.6       118.5       118.4       118.3       118.2    
        118.1       118.0       117.9       117.9       117.8       117.7       117.6       117.4       117.3       117.2    
        117.1       117.0       116.9       116.7       116.6    
  13    119.5       119.5       119.5       119.5       119.5       119.4       119.3       119.2       119.2       119.1    
        119.0       118.9       118.8       118.7       118.6       118.5       118.4       118.3       118.2       118.1    
        118.0       117.9       117.8       117.7       117.6       117.6       117.5       117.3       117.2       117.1    
        117.0       116.9       116.7       116.6       116.5    
  14    119.5       119.5       119.5       119.5       119.3       119.1       118.9       118.8       118.7       118.6    
        118.6       118.6       118.6       118.5       118.4       118.3       118.2       118.1       118.0       117.9    
        117.8       117.7       117.6       117.5       117.4       117.4       117.4       117.2       117.1       117.0    
        116.9       116.8       116.6       116.5       116.4    
  15    119.5       119.5       119.3       119.1       118.9       118.7       118.5       118.4       118.3       118.2    
        118.2       118.2       118.3       118.2       118.2       118.1       118.0       117.9       117.8       117.7    
        117.7       117.6       117.5       117.4       117.3       117.2       117.1       117.1       117.0       116.9    
        116.8       116.7       116.5       116.4       116.3    
  16    119.3       119.1       118.9       118.7       118.5       118.3       118.1       117.9       117.8       117.8    
        117.8       117.8       117.9       117.9       117.9       117.8       117.7       117.7       117.6       117.5    
        117.4       117.3       117.2       117.2       117.1       117.0       116.9       116.9       116.9       116.8    
        116.7       116.5       116.4       116.3       116.2    
  17    118.9       118.7       118.5       118.3       118.1       117.9       117.7       117.5       117.4       117.4    
        117.4       117.4       117.5       117.5       117.5       117.5       117.5       117.4       117.3       117.2    
        117.1       117.1       117.0       116.9       116.8       116.7       116.7       116.7       116.7       116.7    
        116.6       116.4       116.3       116.2       116.1    
  18    118.5       118.3       118.1       117.9       117.7       117.5       117.3       117.1       117.0       117.0    
        117.0       117.0       117.0       117.1       117.1       117.1       117.1       117.1       117.1       117.0    
        116.9       116.8       116.7       116.6       116.6       116.5       116.5       116.5       116.4       116.4    
        116.5       116.3       116.2       116.1       116.1    
  19    118.1       117.9       117.7       117.6       117.4       117.2       117.0       117.0       116.9       116.9    
        116.8       116.7       116.6       116.7       116.7       116.7       116.7       116.8       116.8       116.7    
        116.6       116.6       116.5       116.4       116.3       116.3       116.3       116.3       116.2       116.2    
        116.2       116.2       116.1       116.1       116.1    
  20    117.8       117.6       117.4       117.2       117.0       117.0       117.0       117.0       116.9       116.8    
        116.8       116.7       116.6       116.5       116.4       116.3       116.3       116.4       116.4       116.4    
        116.4       116.3       116.2       116.1       116.1       116.1       116.1       116.0       116.0       116.0    
        116.0       116.0       116.1       116.1       116.1    
  21    117.4       117.2       117.0       117.0       117.0       117.0       117.0       117.0       116.9       116.8    
        116.7       116.6       116.6       116.5       116.4       116.3       116.2       116.2       116.1       116.0    
        116.0       116.0       116.0       115.9       115.9       115.9       115.9       115.9       115.9       116.0    
        116.0       116.0       116.1       116.1       116.1    
  22    117.0       117.0       117.0       117.0       117.0       117.0       117.0       117.0       116.9       116.8    
        116.7       116.6       116.5       116.5       116.4       116.3       116.2       116.1       116.1       116.0    
        115.9       115.8       115.7       115.7       115.8       115.8       115.8       115.9       115.9       116.0    
        116.0       116.0       116.1       116.1       116.1    
  23    117.0       117.0       117.0       117.0       117.0       117.0       117.0       116.9       116.8       116.8    
        116.7       116.6       116.5       116.4       116.4       116.3       116.2       116.1       116.0       116.0    
        115.9       115.8       115.7       115.7       115.8       115.8       115.8       115.9       115.9       115.9    
        116.0       116.0       116.1       116.1       116.1    
  24    117.0       117.0       117.0       117.0       117.0       117.0       117.0       116.9       116.8       116.7    
        116.7       116.6       116.5       116.4       116.3       116.3       116.2       116.1       116.0       115.9    
        115.8       115.8       115.7       115.7       115.8       115.8       115.8       115.9       115.9       115.9    
        116.0       116.0       116.0       116.1       116.1    
  25    117.0       117.0       117.0       117.0       117.0       117.0       117.0       116.9       116.8       116.7    
        116.6       116.6       116.5       116.4       116.3       116.2       116.2       116.1       116.0       115.9    
        115.8       115.7       115.7       115.7       115.7       115.8       115.8       115.9       115.9       115.9    
        116.0       116.0       116.0       116.1       116.1    
  26    117.0       117.0       117.0       117.0       117.0       117.0       116.9       116.9       116.8       116.7    
        116.6       116.5       116.5       116.4       116.3       116.2       116.1       116.0       116.0       115.9    
        115.8       115.7       115.7       115.7       115.7       115.8       115.8       115.8       115.9       115.9    
        116.0       116.0       116.0       116.1       116.1    
  27    117.0       117.0       117.0       117.0       117.0       117.0       116.9       116.8       116.8       116.7    
        116.6       116.5       116.4       116.4       116.3       116.2       116.1       116.0       115.9       115.9    
        115.8       115.7       115.7       115.7       115.7       115.8       115.8       115.8       115.9       115.9    
        115.9       116.0       116.0       116.1       116.1    
  28    117.0       117.0       117.0       117.0       117.0       117.0       116.9       116.8       116.7       116.7    
        116.6       116.5       116.4       116.3       116.2       116.2       116.1       116.0       115.9       115.8    
        115.8       115.7       115.7       115.7       115.7       115.8       115.8       115.8       115.9       115.9    
        115.9       116.0       116.0       116.0       116.1    
  29    117.0       117.0       117.0       117.0       117.0       117.0       116.9       116.8       116.7       116.6    
        116.6       116.5       116.4       116.3       116.2       116.1       116.1       116.0       115.9       115.8    
        115.7       115.7       115.7       115.7       115.7       115.7       115.8       115.8       115.9       115.9    
        115.9       116.0       116.0       116.0       116.1    
  30    117.0       117.0       117.0       117.0       117.0       116.9       116.9       116.8       116.7       116.6    
        116.5       116.4       116.4       116.3       116.2       116.1       116.0       116.0       115.9       115.8    
        115.7       115.7       115.7       115.7       115.7       115.7       115.8       115.8       115.8       115.9    
        115.9       116.0       116.0       116.0       116.1    
  31    117.0       117.0       117.0       117.0       117.0       116.9       116.8       116.7       116.7       116.6    
        116.5       116.4       116.3       116.3       116.2       116.1       116.0       115.9       115.9       115.8    
        115.7       115.7       115.7       115.7       115.7       115.7       115.8       115.8       115.8       115.9    
        115.9       115.9       116.0       116.0       116.1    
  32    117.0       117.0       117.0       117.0       117.0       116.9       116.8       116.7       116.6       116.6    
        116.5       116.4       116.3       116.2       116.2       116.1       116.0       115.9       115.8       115.8    
        115.7       115.7       115.7       115.7       115.7       115.7       115.8       115.8       115.8       115.9    
        115.9       115.9       116.0       116.0       116.0    
  33    117.0       117.0       117.0       117.0       116.9       116.9       116.8       116.7       116.6       116.5    
        116.5       116.4       116.3       116.2       116.1       116.1       116.0       115.9       115.8       115.7    
        115.7       115.7       115.7       115.7       115.7       115.7       115.7       115.8       115.8       115.9    
        115.9       115.9       116.0       116.0       116.0    
  34    117.0       117.0       117.0       117.0       116.9       116.8       116.8       116.7       116.6       116.5    
        116.4       116.4       116.3       116.2       116.1       116.0       115.9       115.9       115.8       115.7    
        115.7       115.7       115.7       115.7       115.7       115.7       115.7       115.8       115.8       115.8    
        115.9       115.9       116.0       116.0       116.0    
  35    117.0       117.0       117.0       117.0       116.9       116.8       116.7       116.7       116.6       116.5    
        116.4       116.3       116.3       116.2       116.1       116.0       115.9       115.8       115.8       115.7    
        115.7       115.7       115.7       115.7       115.7       115.7       115.7       115.8       115.8       115.8    
        115.9       115.9       115.9       116.0       116.0    
  36    117.0       117.0       117.0       117.0       116.9       116.8       116.7       116.6       116.6       116.5    
        116.4       116.3       116.2       116.1       116.1       116.0       115.9       115.8       115.7       115.7    
        115.7       115.7       115.7       115.7       115.7       115.7       115.7       115.8       115.8       115.8    
        115.9       115.9       115.9       116.0       116.0    
  37    117.0       117.0       117.0       116.9       116.9       116.8       116.7       116.6       116.5       116.5    
        116.4       116.3       116.2       116.1       116.0       116.0       115.9       115.8       115.7       115.7    
        115.7       115.7       115.7       115.7       115.7       115.7       115.7       115.7       115.8       115.8    
        115.9       115.9       115.9       116.0       116.0    
  38    117.0       117.0       117.0       116.9       116.8       116.8       116.7       116.6       116.5       116.4    
        116.3       116.3       116.2       116.1       116.0       115.9       115.9       115.8       115.7       115.7    
        115.7       115.7       115.7       115.7       115.7       115.7       115.7       115.7       115.8       115.8    
        115.8       115.9       115.9       116.0       116.0    
  39    117.0       117.0       117.0       116.9       116.8       116.7       116.7       116.6       116.5       116.4    
        116.3       116.2       116.2       116.1       116.0       115.9       115.8       115.8       115.7       115.7    
        115.7       115.7       115.7       115.7       115.7       115.7       115.7       115.7       115.8       115.8    
        115.8       115.9       115.9       115.9       116.0    
  40    117.0       117.0       117.0       116.9       116.8       116.7       116.6       116.5       116.5       116.4    
        116.3       116.2       116.1       116.1       116.0       115.9       115.8       115.7       115.7       115.7    
        115.7       115.7       115.7       115.7       115.7       115.7       115.7       115.7       115.8       115.8    
        115.8       115.9       115.9       115.9       116.0    
  41    117.0       117.0       116.9       116.9       116.8       116.7       116.6       116.5       116.4       116.4    
        116.3       116.2       116.1       116.0       116.0       115.9       115.8       115.7       115.7       115.7    
        115.7       115.7       115.7       115.7       115.7       115.7       115.7       115.7       115.7       115.8    
        115.8       115.9       115.9       115.9       116.0    
  42    117.0       117.0       116.9       116.8       116.7       116.7       116.6       116.5       116.4       116.3    
        116.3       116.2       116.1       116.0       115.9       115.9       115.8       115.7       115.7       115.7    
        115.7       115.7       115.7       115.7       115.7       115.7       115.7       115.7       115.7       115.8    
        115.8       115.8       115.9       115.9       116.0    
  43    117.0       117.0       116.9       116.8       116.7       116.6       116.6       116.5       116.4       116.3    
        116.2       116.2       116.1       116.0       115.9       115.8       115.7       115.7       115.7       115.7    
        115.7       115.7       115.7       115.7       115.7       115.7       115.7       115.7       115.7       115.8    
        115.8       115.8       115.9       115.9       115.9    
  44    117.0       116.9       116.9       116.8       116.7       116.6       116.5       116.5       116.4       116.3    
        116.2       116.1       116.1       116.0       115.9       115.8       115.7       115.7       115.7       115.7    
        115.7       115.7       115.7       115.7       115.7       115.7       115.7       115.7       115.7       115.8    
        115.8       115.8       115.9       115.9       115.9    
  45    117.0       116.9       116.8       116.8       116.7       116.6       116.5       116.4       116.4       116.3    
        116.2       116.1       116.0       115.9       115.9       115.8       115.7       115.7       115.7       115.7    
        115.7       115.7       115.7       115.7       115.7       115.7       115.7       115.7       115.7       115.7    
        115.8       115.8       115.9       115.9       115.9    



             MODEL LAYER BOTTOM EL. FOR LAYER   1
 READING ON UNIT   12 WITH FORMAT: (FREE)              

            1           2           3           4           5           6           7           8           9          10
           11          12          13          14          15          16          17          18          19          20
           21          22          23          24          25          26          27          28          29          30
           31          32          33          34          35
 ........................................................................................................................
   1    112.0       112.0       112.0       112.1       112.1       112.1       112.2       112.2       112.2       112.3    
        112.3       112.4       112.4       112.4       112.5       112.5       112.5       112.5       112.5       112.5    
        112.5       112.5       112.5       112.5       112.5       112.5       112.5       112.4       112.4       112.4    
        112.4       112.4       112.4       112.4       112.3    
   2    112.0       112.0       112.0       112.0       112.1       112.1       112.2       112.2       112.2       112.3    
        112.3       112.4       112.4       112.4       112.5       112.5       112.5       112.5       112.5       112.5    
        112.5       112.5       112.5       112.5       112.5       112.5       112.4       112.4       112.4       112.4    
        112.4       112.4       112.4       112.3       112.3    
   3    112.0       112.0       112.0       112.0       112.1       112.1       112.1       112.2       112.2       112.3    
        112.3       112.3       112.4       112.4       112.5       112.5       112.5       112.5       112.5       112.5    
        112.5       112.5       112.5       112.5       112.5       112.4       112.4       112.4       112.4       112.4    
        112.4       112.4       112.3       112.3       112.3    
   4    112.0       112.0       112.0       112.0       112.0       112.1       112.1       112.2       112.2       112.2    
        112.3       112.3       112.4       112.4       112.4       112.5       112.5       112.5       112.5       112.5    
        112.5       112.5       112.5       112.5       112.4       112.4       112.4       112.4       112.4       112.4    
        112.4       112.3       112.3       112.3       112.3    
   5    112.0       112.0       112.0       112.0       112.0       112.1       112.1       112.2       112.2       112.2    
        112.3       112.3       112.4       112.4       112.4       112.5       112.5       112.5       112.5       112.5    
        112.5       112.5       112.5       112.5       112.4       112.4       112.4       112.4       112.4       112.4    
        112.3       112.3       112.3       112.3       112.3    
   6    112.0       112.0       112.0       112.0       112.0       112.1       112.1       112.1       112.2       112.2    
        112.3       112.3       112.3       112.4       112.4       112.5       112.5       112.5       112.5       112.5    
        112.5       112.5       112.5       112.4       112.4       112.4       112.4       112.4       112.4       112.3    
        112.3       112.3       112.3       112.3       112.3    
   7    112.0       112.0       112.0       112.0       112.0       112.0       112.1       112.1       112.2       112.2    
        112.2       112.3       112.3       112.4       112.4       112.4       112.4       112.5       112.5       112.5    
        112.5       112.5       112.4       112.4       112.4       112.4       112.4       112.4       112.3       112.3    
        112.3       112.3       112.3       112.3       112.3    
   8    112.0       112.0       112.0       112.0       112.0       112.0       112.1       112.1       112.2       112.2    
        112.2       112.3       112.3       112.3       112.3       112.3       112.4       112.4       112.5       112.5    
        112.5       112.4       112.4       112.4       112.4       112.4       112.4       112.3       112.3       112.3    
        112.3       112.3       112.3       112.3       112.2    
   9    112.0       112.0       112.0       112.0       112.0       112.0       112.1       112.1       112.1       112.2    
        112.2       112.2       112.2       112.2       112.2       112.2       112.3       112.3       112.4       112.4    
        112.4       112.4       112.4       112.4       112.4       112.4       112.4       112.3       112.3       112.3    
        112.3       112.3       112.3       112.2       112.2    
  10    112.1       112.1       112.1       112.1       112.1       112.0       112.0       112.0       112.0       112.0    
        112.1       112.1       112.1       112.1       112.1       112.2       112.2       112.3       112.3       112.4    
        112.4       112.4       112.4       112.4       112.4       112.4       112.3       112.3       112.3       112.3    
        112.3       112.3       112.2       112.2       112.2    
  11    112.3       112.3       112.3       112.2       112.2       112.2       112.1       111.9       111.9       111.9    
        111.9       111.9       111.9       112.0       112.0       112.1       112.2       112.2       112.3       112.3    
        112.4       112.4       112.4       112.4       112.4       112.3       112.3       112.3       112.3       112.3    
        112.3       112.2       112.2       112.2       112.2    
  12    112.4       112.4       112.4       112.4       112.4       112.4       112.2       112.0       111.9       111.8    
        111.8       111.8       111.9       111.9       112.0       112.0       112.1       112.1       112.2       112.2    
        112.3       112.3       112.4       112.4       112.3       112.3       112.3       112.3       112.3       112.3    
        112.2       112.2       112.2       112.2       112.2    
  13    112.5       112.5       112.5       112.5       112.5       112.5       112.3       112.2       112.0       111.8    
        111.7       111.8       111.8       111.9       111.9       112.0       112.0       112.1       112.1       112.2    
        112.2       112.3       112.3       112.4       112.4       112.3       112.3       112.3       112.3       112.2    
        112.2       112.2       112.2       112.2       112.2    
  14    112.5       112.5       112.5       112.5       112.4       112.4       112.3       112.1       112.0       111.8    
        111.7       111.6       111.7       111.7       111.8       111.9       111.9       112.0       112.0       112.1    
        112.2       112.2       112.3       112.3       112.4       112.4       112.3       112.3       112.3       112.2    
        112.2       112.2       112.2       112.2       112.2    
  15    112.5       112.5       112.4       112.4       112.3       112.2       112.2       112.1       111.9       111.7    
        111.7       111.6       111.5       111.5       111.6       111.7       111.7       111.8       111.9       112.0    
        112.0       112.1       112.2       112.2       112.3       112.3       112.3       112.3       112.2       112.2    
        112.2       112.2       112.2       112.2       112.1    
  16    112.4       112.4       112.3       112.3       112.2       112.1       112.1       112.0       111.9       111.7    
        111.7       111.6       111.5       111.5       111.4       111.5       111.5       111.6       111.7       111.8    
        111.8       111.9       112.0       112.1       112.1       112.2       112.3       112.3       112.2       112.2    
        112.2       112.2       112.2       112.1       112.1    
  17    112.3       112.3       112.2       112.2       112.1       112.0       112.0       111.9       111.8       111.7    
        111.7       111.6       111.5       111.5       111.4       111.3       111.4       111.4       111.5       111.6    
        111.6       111.7       111.8       111.9       111.9       112.0       112.1       112.2       112.3       112.2    
        112.2       112.2       112.1       112.1       112.1    
  18    112.2       112.2       112.1       112.0       112.0       111.9       111.9       111.8       111.8       111.7    
        111.7       111.6       111.5       111.5       111.4       111.3       111.3       111.2       111.3       111.4    
        111.4       111.5       111.6       111.7       111.7       111.8       111.9       112.0       112.1       112.2    
        112.2       112.1       112.1       112.1       112.1    
  19    112.1       112.1       112.0       111.9       111.9       111.8       111.8       111.8       111.8       111.7    
        111.6       111.6       111.5       111.4       111.4       111.3       111.3       111.2       111.1       111.2    
        111.2       111.3       111.4       111.5       111.5       111.6       111.7       111.8       111.9       112.0    
        112.1       112.1       112.1       112.1       112.1    
  20    112.0       111.9       111.9       111.8       111.8       111.8       111.8       111.8       111.7       111.7    
        111.6       111.6       111.5       111.4       111.4       111.3       111.2       111.2       111.1       111.1    
        111.0       111.1       111.2       111.3       111.3       111.4       111.5       111.6       111.7       111.8    
        111.9       112.0       112.1       112.1       112.1    
  21    111.9       111.8       111.8       111.8       111.8       111.8       111.8       111.8       111.7       111.7    
        111.6       111.5       111.5       111.4       111.4       111.3       111.2       111.2       111.1       111.0    
        111.0       110.9       111.0       111.1       111.2       111.2       111.3       111.5       111.6       111.7    
        111.8       112.0       112.1       112.1       112.1    
  22    111.8       111.8       111.8       111.8       111.8       111.8       111.8       111.8       111.7       111.7    
        111.6       111.5       111.5       111.4       111.3       111.3       111.2       111.2       111.1       111.0    
        111.0       110.9       110.8       110.9       111.0       111.2       111.3       111.4       111.6       111.7    
        111.8       111.9       112.1       112.1       112.1    
  23    111.8       111.8       111.8       111.8       111.8       111.8       111.8       111.8       111.7       111.6    
        111.6       111.5       111.4       111.4       111.3       111.3       111.2       111.1       111.1       111.0    
        111.0       110.9       110.8       110.9       111.0       111.1       111.3       111.4       111.5       111.7    
        111.8       111.9       112.0       112.1       112.1    
  24    111.8       111.8       111.8       111.8       111.8       111.8       111.8       111.7       111.7       111.6    
        111.6       111.5       111.4       111.4       111.3       111.2       111.2       111.1       111.1       111.0    
        110.9       110.9       110.8       110.9       111.0       111.1       111.2       111.4       111.5       111.6    
        111.8       111.9       112.0       112.1       112.1    
  25    111.8       111.8       111.8       111.8       111.8       111.8       111.8       111.7       111.7       111.6    
        111.5       111.5       111.4       111.4       111.3       111.2       111.2       111.1       111.0       111.0    
        110.9       110.9       110.8       110.8       111.0       111.1       111.2       111.3       111.5       111.6    
        111.7       111.8       112.0       112.1       112.1    
  26    111.8       111.8       111.8       111.8       111.8       111.8       111.8       111.7       111.6       111.6    
        111.5       111.5       111.4       111.3       111.3       111.2       111.1       111.1       111.0       111.0    
        110.9       110.8       110.8       110.8       110.9       111.0       111.2       111.3       111.4       111.6    
        111.7       111.8       111.9       112.1       112.1    
  27    111.8       111.8       111.8       111.8       111.8       111.8       111.8       111.7       111.6       111.6    
        111.5       111.4       111.4       111.3       111.3       111.2       111.1       111.1       111.0       110.9    
        110.9       110.8       110.8       110.8       110.9       111.0       111.1       111.3       111.4       111.5    
        111.7       111.8       111.9       112.0       112.1    
  28    111.8       111.8       111.8       111.8       111.8       111.8       111.7       111.7       111.6       111.5    
        111.5       111.4       111.4       111.3       111.2       111.2       111.1       111.1       111.0       110.9    
        110.9       110.8       110.8       110.8       110.9       111.0       111.1       111.2       111.4       111.5    
        111.6       111.8       111.9       112.0       112.1    
  29    111.8       111.8       111.8       111.8       111.8       111.8       111.7       111.7       111.6       111.5    
        111.5       111.4       111.3       111.3       111.2       111.2       111.1       111.0       111.0       110.9    
        110.8       110.8       110.8       110.8       110.8       111.0       111.1       111.2       111.3       111.5    
        111.6       111.7       111.8       112.0       112.1    
  30    111.8       111.8       111.8       111.8       111.8       111.8       111.7       111.6       111.6       111.5    
        111.5       111.4       111.3       111.3       111.2       111.1       111.1       111.0       111.0       110.9    
        110.8       110.8       110.8       110.8       110.8       110.9       111.1       111.2       111.3       111.4    
        111.6       111.7       111.8       111.9       112.1    
  31    111.8       111.8       111.8       111.8       111.8       111.7       111.7       111.6       111.6       111.5    
        111.4       111.4       111.3       111.2       111.2       111.1       111.1       111.0       110.9       110.9    
        110.8       110.8       110.8       110.8       110.8       110.9       111.0       111.1       111.3       111.4    
        111.5       111.7       111.8       111.9       112.0    
  32    111.8       111.8       111.8       111.8       111.8       111.7       111.7       111.6       111.5       111.5    
        111.4       111.4       111.3       111.2       111.2       111.1       111.0       111.0       110.9       110.9    
        110.8       110.8       110.8       110.8       110.8       110.9       111.0       111.1       111.2       111.4    
        111.5       111.6       111.8       111.9       112.0    
  33    111.8       111.8       111.8       111.8       111.8       111.7       111.6       111.6       111.5       111.5    
        111.4       111.3       111.3       111.2       111.2       111.1       111.0       111.0       110.9       110.8    
        110.8       110.8       110.8       110.8       110.8       110.8       111.0       111.1       111.2       111.3    
        111.5       111.6       111.7       111.9       112.0    
  34    111.8       111.8       111.8       111.8       111.8       111.7       111.6       111.6       111.5       111.4    
        111.4       111.3       111.3       111.2       111.1       111.1       111.0       111.0       110.9       110.8    
        110.8       110.8       110.8       110.8       110.8       110.8       110.9       111.1       111.2       111.3    
        111.4       111.6       111.7       111.8       111.9    
  35    111.8       111.8       111.8       111.8       111.7       111.7       111.6       111.6       111.5       111.4    
        111.4       111.3       111.2       111.2       111.1       111.1       111.0       110.9       110.9       110.8    
        110.8       110.8       110.8       110.8       110.8       110.8       110.9       111.0       111.1       111.3    
        111.4       111.5       111.7       111.8       111.9    
  36    111.8       111.8       111.8       111.8       111.7       111.7       111.6       111.5       111.5       111.4    
        111.3       111.3       111.2       111.2       111.1       111.0       111.0       110.9       110.9       110.8    
        110.8       110.8       110.8       110.8       110.8       110.8       110.9       111.0       111.1       111.2    
        111.4       111.5       111.6       111.8       111.9    
  37    111.8       111.8       111.8       111.8       111.7       111.6       111.6       111.5       111.5       111.4    
        111.3       111.3       111.2       111.1       111.1       111.0       111.0       110.9       110.8       110.8    
        110.8       110.8       110.8       110.8       110.8       110.8       110.8       111.0       111.1       111.2    
        111.3       111.5       111.6       111.7       111.9    
  38    111.8       111.8       111.8       111.7       111.7       111.6       111.6       111.5       111.4       111.4    
        111.3       111.3       111.2       111.1       111.1       111.0       110.9       110.9       110.8       110.8    
        110.8       110.8       110.8       110.8       110.8       110.8       110.8       110.9       111.1       111.2    
        111.3       111.4       111.6       111.7       111.8    
  39    111.8       111.8       111.8       111.7       111.7       111.6       111.5       111.5       111.4       111.4    
        111.3       111.2       111.2       111.1       111.1       111.0       110.9       110.9       110.8       110.8    
        110.8       110.8       110.8       110.8       110.8       110.8       110.8       110.9       111.0       111.2    
        111.3       111.4       111.5       111.7       111.8    
  40    111.8       111.8       111.8       111.7       111.7       111.6       111.5       111.5       111.4       111.3    
        111.3       111.2       111.2       111.1       111.0       111.0       110.9       110.8       110.8       110.8    
        110.8       110.8       110.8       110.8       110.8       110.8       110.8       110.9       111.0       111.1    
        111.2       111.4       111.5       111.6       111.8    
  41    111.8       111.8       111.8       111.7       111.6       111.6       111.5       111.5       111.4       111.3    
        111.3       111.2       111.1       111.1       111.0       111.0       110.9       110.8       110.8       110.8    
        110.8       110.8       110.8       110.8       110.8       110.8       110.8       110.8       111.0       111.1    
        111.2       111.3       111.5       111.6       111.7    
  42    111.8       111.8       111.7       111.7       111.6       111.6       111.5       111.4       111.4       111.3    
        111.2       111.2       111.1       111.1       111.0       110.9       110.9       110.8       110.8       110.8    
        110.8       110.8       110.8       110.8       110.8       110.8       110.8       110.8       110.9       111.1    
        111.2       111.3       111.4       111.6       111.7    
  43    111.8       111.8       111.7       111.7       111.6       111.5       111.5       111.4       111.4       111.3    
        111.2       111.2       111.1       111.0       111.0       110.9       110.9       110.8       110.8       110.8    
        110.8       110.8       110.8       110.8       110.8       110.8       110.8       110.8       110.9       111.0    
        111.2       111.3       111.4       111.5       111.7    
  44    111.8       111.8       111.7       111.6       111.6       111.5       111.5       111.4       111.3       111.3    
        111.2       111.2       111.1       111.0       111.0       110.9       110.8       110.8       110.8       110.8    
        110.8       110.8       110.8       110.8       110.8       110.8       110.8       110.8       110.9       111.0    
        111.1       111.3       111.4       111.5       111.6    
  45    111.8       111.8       111.7       111.6       111.6       111.5       111.4       111.4       111.3       111.3    
        111.2       111.1       111.1       111.0       110.9       110.9       110.8       110.8       110.8       110.8    
        110.8       110.8       110.8       110.8       110.8       110.8       110.8       110.8       110.8       111.0    
        111.1       111.2       111.3       111.5       111.6    



             MODEL LAYER BOTTOM EL. FOR LAYER   2
 READING ON UNIT   12 WITH FORMAT: (FREE)              

            1           2           3           4           5           6           7           8           9          10
           11          12          13          14          15          16          17          18          19          20
           21          22          23          24          25          26          27          28          29          30
           31          32          33          34          35
 ........................................................................................................................
   1    108.7       108.7       108.7       108.7       108.7       108.7       108.8       108.8       108.8       108.9    
        108.9       108.9       108.9       109.0       109.0       109.0       109.0       109.0       109.0       109.0    
        109.0       109.0       109.0       109.0       108.9       108.9       108.9       108.9       108.8       108.8    
        108.8       108.7       108.7       108.7       108.6    
   2    108.7       108.7       108.7       108.7       108.7       108.7       108.8       108.8       108.8       108.8    
        108.9       108.9       108.9       109.0       109.0       109.0       109.0       109.0       109.0       109.0    
        109.0       109.0       109.0       109.0       108.9       108.9       108.9       108.8       108.8       108.8    
        108.7       108.7       108.7       108.6       108.6    
   3    108.7       108.7       108.7       108.7       108.7       108.7       108.8       108.8       108.8       108.8    
        108.9       108.9       108.9       109.0       109.0       109.0       109.0       109.0       109.0       109.0    
        109.0       109.0       109.0       108.9       108.9       108.9       108.8       108.8       108.8       108.7    
        108.7       108.7       108.6       108.6       108.6    
   4    108.7       108.7       108.7       108.7       108.7       108.7       108.7       108.8       108.8       108.8    
        108.9       108.9       108.9       108.9       109.0       109.0       109.0       109.0       109.0       109.0    
        109.0       109.0       108.9       108.9       108.9       108.8       108.8       108.8       108.7       108.7    
        108.7       108.6       108.6       108.6       108.5    
   5    108.7       108.7       108.7       108.7       108.7       108.7       108.7       108.8       108.8       108.8    
        108.8       108.9       108.9       108.9       109.0       109.0       109.0       109.0       109.0       109.0    
        109.0       108.9       108.9       108.9       108.8       108.8       108.8       108.7       108.7       108.7    
        108.6       108.6       108.6       108.5       108.5    
   6    108.7       108.7       108.7       108.7       108.7       108.7       108.7       108.8       108.8       108.8    
        108.8       108.9       108.9       108.9       109.0       109.0       109.0       109.0       109.0       109.0    
        108.9       108.9       108.9       108.8       108.8       108.8       108.7       108.7       108.7       108.6    
        108.6       108.6       108.5       108.5       108.5    
   7    108.7       108.7       108.7       108.7       108.7       108.7       108.7       108.7       108.8       108.8    
        108.8       108.9       108.9       108.9       108.9       108.9       108.9       108.9       109.0       108.9    
        108.9       108.9       108.8       108.8       108.8       108.7       108.7       108.7       108.6       108.6    
        108.6       108.5       108.5       108.5       108.5    
   8    108.7       108.7       108.7       108.7       108.7       108.7       108.7       108.7       108.8       108.8    
        108.8       108.8       108.8       108.8       108.8       108.8       108.8       108.8       108.9       108.9    
        108.9       108.8       108.8       108.8       108.7       108.7       108.7       108.6       108.6       108.6    
        108.6       108.5       108.5       108.5       108.4    
   9    108.7       108.7       108.7       108.7       108.7       108.7       108.7       108.7       108.7       108.8    
        108.7       108.7       108.7       108.6       108.6       108.7       108.7       108.7       108.8       108.8    
        108.8       108.8       108.8       108.7       108.7       108.7       108.7       108.6       108.6       108.6    
        108.5       108.5       108.5       108.4       108.4    
  10    108.7       108.7       108.7       108.7       108.7       108.7       108.7       108.6       108.6       108.6    
        108.6       108.5       108.5       108.5       108.5       108.6       108.6       108.6       108.7       108.7    
        108.8       108.8       108.8       108.7       108.7       108.7       108.6       108.6       108.6       108.5    
        108.5       108.5       108.4       108.4       108.4    
  11    108.8       108.7       108.7       108.7       108.7       108.7       108.6       108.5       108.4       108.4    
        108.4       108.4       108.3       108.4       108.4       108.4       108.5       108.5       108.6       108.6    
        108.6       108.7       108.7       108.7       108.7       108.6       108.6       108.6       108.5       108.5    
        108.5       108.4       108.4       108.4       108.3    
  12    108.8       108.8       108.8       108.8       108.8       108.8       108.7       108.5       108.3       108.2    
        108.2       108.2       108.2       108.3       108.3       108.3       108.4       108.4       108.5       108.5    
        108.5       108.6       108.6       108.7       108.6       108.6       108.6       108.5       108.5       108.5    
        108.4       108.4       108.4       108.3       108.3    
  13    108.8       108.8       108.8       108.8       108.8       108.8       108.7       108.5       108.4       108.2    
        108.0       108.1       108.1       108.2       108.2       108.2       108.3       108.3       108.4       108.4    
        108.4       108.5       108.5       108.6       108.6       108.6       108.5       108.5       108.5       108.4    
        108.4       108.4       108.3       108.3       108.3    
  14    108.8       108.8       108.8       108.8       108.9       108.9       108.9       108.7       108.6       108.4    
        108.2       108.1       108.1       108.1       108.1       108.1       108.2       108.2       108.3       108.3    
        108.3       108.4       108.4       108.5       108.5       108.5       108.5       108.5       108.4       108.4    
        108.4       108.3       108.3       108.3       108.2    
  15    108.8       108.8       108.9       108.9       108.9       109.0       109.0       108.9       108.7       108.6    
        108.4       108.3       108.1       108.1       108.1       108.1       108.1       108.2       108.2       108.2    
        108.3       108.3       108.3       108.3       108.4       108.4       108.5       108.4       108.4       108.4    
        108.3       108.3       108.3       108.2       108.2    
  16    108.8       108.9       108.9       109.0       109.0       109.1       109.1       109.1       108.9       108.8    
        108.6       108.5       108.3       108.2       108.1       108.1       108.1       108.1       108.2       108.2    
        108.2       108.2       108.3       108.3       108.3       108.4       108.4       108.4       108.4       108.3    
        108.3       108.3       108.3       108.2       108.2    
  17    108.9       109.0       109.0       109.1       109.1       109.1       109.2       109.2       109.1       109.0    
        108.8       108.7       108.5       108.4       108.3       108.1       108.1       108.1       108.1       108.2    
        108.2       108.2       108.2       108.3       108.3       108.3       108.3       108.3       108.3       108.3    
        108.3       108.3       108.2       108.2       108.2    
  18    109.0       109.1       109.1       109.1       109.2       109.2       109.3       109.3       109.3       109.2    
        109.1       108.9       108.8       108.6       108.5       108.3       108.2       108.1       108.1       108.1    
        108.2       108.2       108.2       108.2       108.3       108.3       108.3       108.3       108.3       108.3    
        108.3       108.2       108.2       108.2       108.2    
  19    109.1       109.1       109.2       109.2       109.3       109.3       109.3       109.3       109.3       109.2    
        109.2       109.1       109.0       108.8       108.7       108.5       108.4       108.2       108.1       108.1    
        108.1       108.1       108.2       108.2       108.2       108.2       108.2       108.2       108.2       108.2    
        108.2       108.2       108.2       108.2       108.2    
  20    109.2       109.2       109.3       109.3       109.3       109.3       109.3       109.3       109.3       109.2    
        109.1       109.1       109.0       108.9       108.8       108.7       108.6       108.5       108.3       108.2    
        108.1       108.1       108.1       108.2       108.2       108.2       108.2       108.2       108.2       108.2    
        108.1       108.2       108.2       108.2       108.2    
  21    109.3       109.3       109.3       109.3       109.3       109.3       109.3       109.3       109.3       109.2    
        109.1       109.0       108.9       108.9       108.8       108.7       108.6       108.5       108.5       108.4    
        108.2       108.1       108.1       108.1       108.1       108.1       108.1       108.1       108.1       108.1    
        108.1       108.1       108.2       108.2       108.2    
  22    109.3       109.3       109.3       109.3       109.3       109.3       109.3       109.3       109.2       109.2    
        109.1       109.0       108.9       108.8       108.8       108.7       108.6       108.5       108.4       108.4    
        108.3       108.2       108.1       108.1       108.1       108.1       108.1       108.1       108.1       108.1    
        108.1       108.1       108.2       108.2       108.2    
  23    109.3       109.3       109.3       109.3       109.3       109.3       109.3       109.3       109.2       109.1    
        109.1       109.0       108.9       108.8       108.7       108.7       108.6       108.5       108.4       108.3    
        108.3       108.2       108.1       108.1       108.1       108.1       108.1       108.1       108.1       108.1    
        108.1       108.1       108.2       108.2       108.2    
  24    109.3       109.3       109.3       109.3       109.3       109.3       109.3       109.3       109.2       109.1    
        109.0       109.0       108.9       108.8       108.7       108.6       108.6       108.5       108.4       108.3    
        108.2       108.1       108.1       108.1       108.1       108.1       108.1       108.1       108.1       108.1    
        108.1       108.1       108.2       108.2       108.2    
  25    109.3       109.3       109.3       109.3       109.3       109.3       109.3       109.3       109.2       109.1    
        109.0       108.9       108.9       108.8       108.7       108.6       108.5       108.4       108.4       108.3    
        108.2       108.1       108.1       108.1       108.1       108.1       108.1       108.1       108.1       108.1    
        108.1       108.1       108.1       108.2       108.2    
  26    109.3       109.3       109.3       109.3       109.3       109.3       109.3       109.2       109.2       109.1    
        109.0       108.9       108.8       108.8       108.7       108.6       108.5       108.4       108.3       108.3    
        108.2       108.1       108.1       108.1       108.1       108.1       108.1       108.1       108.1       108.1    
        108.1       108.1       108.1       108.2       108.2    
  27    109.3       109.3       109.3       109.3       109.3       109.3       109.3       109.2       109.1       109.1    
        109.0       108.9       108.8       108.7       108.6       108.6       108.5       108.4       108.3       108.2    
        108.2       108.1       108.1       108.1       108.1       108.1       108.1       108.1       108.1       108.1    
        108.1       108.1       108.1       108.2       108.2    
  28    109.3       109.3       109.3       109.3       109.3       109.3       109.3       109.2       109.1       109.0    
        109.0       108.9       108.8       108.7       108.6       108.5       108.5       108.4       108.3       108.2    
        108.1       108.1       108.1       108.1       108.1       108.1       108.1       108.1       108.1       108.1    
        108.1       108.1       108.1       108.2       108.2    
  29    109.3       109.3       109.3       109.3       109.3       109.3       109.3       109.2       109.1       109.0    
        108.9       108.8       108.8       108.7       108.6       108.5       108.4       108.4       108.3       108.2    
        108.1       108.1       108.1       108.1       108.1       108.1       108.1       108.1       108.1       108.1    
        108.1       108.1       108.1       108.1       108.2    
  30    109.3       109.3       109.3       109.3       109.3       109.3       109.2       109.2       109.1       109.0    
        108.9       108.8       108.7       108.7       108.6       108.5       108.4       108.3       108.3       108.2    
        108.1       108.1       108.1       108.1       108.1       108.1       108.1       108.1       108.1       108.1    
        108.1       108.1       108.1       108.1       108.2    
  31    109.3       109.3       109.3       109.3       109.3       109.3       109.2       109.1       109.0       109.0    
        108.9       108.8       108.7       108.6       108.6       108.5       108.4       108.3       108.2       108.2    
        108.1       108.1       108.1       108.1       108.1       108.1       108.1       108.1       108.1       108.1    
        108.1       108.1       108.1       108.1       108.2    
  32    109.3       109.3       109.3       109.3       109.3       109.3       109.2       109.1       109.0       108.9    
        108.9       108.8       108.7       108.6       108.5       108.5       108.4       108.3       108.2       108.1    
        108.1       108.1       108.1       108.1       108.1       108.1       108.1       108.1       108.1       108.1    
        108.1       108.1       108.1       108.1       108.2    
  33    109.3       109.3       109.3       109.3       109.3       109.2       109.2       109.1       109.0       108.9    
        108.8       108.8       108.7       108.6       108.5       108.4       108.4       108.3       108.2       108.1    
        108.1       108.1       108.1       108.1       108.1       108.1       108.1       108.1       108.1       108.1    
        108.1       108.1       108.1       108.1       108.1    
  34    109.3       109.3       109.3       109.3       109.3       109.2       109.1       109.1       109.0       108.9    
        108.8       108.7       108.7       108.6       108.5       108.4       108.3       108.2       108.2       108.1    
        108.1       108.1       108.1       108.1       108.1       108.1       108.1       108.1       108.1       108.1    
        108.1       108.1       108.1       108.1       108.1    
  35    109.3       109.3       109.3       109.3       109.3       109.2       109.1       109.0       109.0       108.9    
        108.8       108.7       108.6       108.6       108.5       108.4       108.3       108.2       108.1       108.1    
        108.1       108.1       108.1       108.1       108.1       108.1       108.1       108.1       108.1       108.1    
        108.1       108.1       108.1       108.1       108.1    
  36    109.3       109.3       109.3       109.3       109.3       109.2       109.1       109.0       108.9       108.9    
        108.8       108.7       108.6       108.5       108.4       108.4       108.3       108.2       108.1       108.1    
        108.1       108.1       108.1       108.1       108.1       108.1       108.1       108.1       108.1       108.1    
        108.1       108.1       108.1       108.1       108.1    
  37    109.3       109.3       109.3       109.3       109.2       109.2       109.1       109.0       108.9       108.8    
        108.8       108.7       108.6       108.5       108.4       108.3       108.3       108.2       108.1       108.1    
        108.1       108.1       108.1       108.1       108.1       108.1       108.1       108.1       108.1       108.1    
        108.1       108.1       108.1       108.1       108.1    
  38    109.3       109.3       109.3       109.3       109.2       109.1       109.1       109.0       108.9       108.8    
        108.7       108.6       108.6       108.5       108.4       108.3       108.2       108.2       108.1       108.1    
        108.1       108.1       108.1       108.1       108.1       108.1       108.1       108.1       108.1       108.1    
        108.1       108.1       108.1       108.1       108.1    
  39    109.3       109.3       109.3       109.3       109.2       109.1       109.0       109.0       108.9       108.8    
        108.7       108.6       108.5       108.5       108.4       108.3       108.2       108.1       108.1       108.1    
        108.1       108.1       108.1       108.1       108.1       108.1       108.1       108.1       108.1       108.1    
        108.1       108.1       108.1       108.1       108.1    
  40    109.3       109.3       109.3       109.3       109.2       109.1       109.0       108.9       108.8       108.8    
        108.7       108.6       108.5       108.4       108.4       108.3       108.2       108.1       108.1       108.1    
        108.1       108.1       108.1       108.1       108.1       108.1       108.1       108.1       108.1       108.1    
        108.1       108.1       108.1       108.1       108.1    
  41    109.3       109.3       109.3       109.2       109.2       109.1       109.0       108.9       108.8       108.7    
        108.7       108.6       108.5       108.4       108.3       108.3       108.2       108.1       108.1       108.1    
        108.1       108.1       108.1       108.1       108.1       108.1       108.1       108.1       108.1       108.1    
        108.1       108.1       108.1       108.1       108.1    
  42    109.3       109.3       109.3       109.2       109.1       109.0       109.0       108.9       108.8       108.7    
        108.6       108.6       108.5       108.4       108.3       108.2       108.2       108.1       108.1       108.1    
        108.1       108.1       108.1       108.1       108.1       108.1       108.1       108.1       108.1       108.1    
        108.1       108.1       108.1       108.1       108.1    
  43    109.3       109.3       109.3       109.2       109.1       109.0       108.9       108.9       108.8       108.7    
        108.6       108.5       108.5       108.4       108.3       108.2       108.1       108.1       108.1       108.1    
        108.1       108.1       108.1       108.1       108.1       108.1       108.1       108.1       108.1       108.1    
        108.1       108.1       108.1       108.1       108.1    
  44    109.3       109.3       109.2       109.2       109.1       109.0       108.9       108.8       108.8       108.7    
        108.6       108.5       108.4       108.4       108.3       108.2       108.1       108.1       108.1       108.1    
        108.1       108.1       108.1       108.1       108.1       108.1       108.1       108.1       108.1       108.1    
        108.1       108.1       108.1       108.1       108.1    
  45    109.3       109.3       109.2       109.1       109.1       109.0       108.9       108.8       108.7       108.7    
        108.6       108.5       108.4       108.3       108.2       108.2       108.1       108.1       108.1       108.1    
        108.1       108.1       108.1       108.1       108.1       108.1       108.1       108.1       108.1       108.1    
        108.1       108.1       108.1       108.1       108.1    



             MODEL LAYER BOTTOM EL. FOR LAYER   3
 READING ON UNIT   12 WITH FORMAT: (FREE)              

            1           2           3           4           5           6           7           8           9          10
           11          12          13          14          15          16          17          18          19          20
           21          22          23          24          25          26          27          28          29          30
           31          32          33          34          35
 ........................................................................................................................
   1    107.2       107.2       107.2       107.2       107.2       107.2       107.3       107.3       107.3       107.3    
        107.4       107.4       107.4       107.5       107.5       107.5       107.5       107.5       107.5       107.5    
        107.5       107.5       107.5       107.5       107.4       107.4       107.3       107.3       107.2       107.2    
        107.1       107.1       107.1       107.0       107.0    
   2    107.2       107.2       107.2       107.2       107.2       107.2       107.2       107.3       107.3       107.3    
        107.4       107.4       107.4       107.5       107.5       107.5       107.5       107.5       107.5       107.5    
        107.5       107.5       107.5       107.4       107.4       107.3       107.3       107.2       107.2       107.2    
        107.1       107.1       107.0       107.0       106.9    
   3    107.2       107.2       107.2       107.2       107.2       107.2       107.2       107.3       107.3       107.3    
        107.4       107.4       107.4       107.4       107.5       107.5       107.5       107.5       107.5       107.5    
        107.5       107.5       107.4       107.4       107.3       107.3       107.2       107.2       107.2       107.1    
        107.1       107.0       107.0       106.9       106.9    
   4    107.2       107.2       107.2       107.2       107.2       107.2       107.2       107.3       107.3       107.3    
        107.3       107.4       107.4       107.4       107.5       107.5       107.5       107.5       107.5       107.5    
        107.5       107.4       107.4       107.3       107.3       107.2       107.2       107.2       107.1       107.1    
        107.0       107.0       106.9       106.9       106.9    
   5    107.2       107.2       107.2       107.2       107.2       107.2       107.2       107.2       107.3       107.3    
        107.3       107.4       107.4       107.4       107.5       107.5       107.5       107.5       107.5       107.5    
        107.4       107.4       107.3       107.3       107.3       107.2       107.2       107.1       107.1       107.0    
        107.0       106.9       106.9       106.9       106.8    
   6    107.2       107.2       107.2       107.2       107.2       107.2       107.2       107.2       107.3       107.3    
        107.3       107.4       107.4       107.4       107.4       107.5       107.5       107.5       107.5       107.4    
        107.4       107.3       107.3       107.3       107.2       107.2       107.1       107.1       107.0       107.0    
        106.9       106.9       106.9       106.8       106.8    
   7    107.2       107.2       107.2       107.2       107.2       107.2       107.2       107.2       107.3       107.3    
        107.3       107.3       107.4       107.4       107.4       107.4       107.4       107.4       107.4       107.4    
        107.4       107.3       107.3       107.2       107.2       107.1       107.1       107.0       107.0       107.0    
        106.9       106.9       106.8       106.8       106.7    
   8    107.2       107.2       107.2       107.2       107.2       107.2       107.2       107.2       107.2       107.3    
        107.3       107.3       107.3       107.3       107.3       107.3       107.3       107.3       107.2       107.4    
        107.3       107.3       107.2       107.2       107.1       107.1       107.0       107.0       107.0       106.9    
        106.9       106.8       106.8       106.7       106.7    
   9    107.2       107.2       107.2       107.2       107.2       107.2       107.2       107.2       107.2       107.2    
        107.2       107.2       107.2       107.2       107.2       107.2       107.2       107.1       107.1       107.1    
        107.3       107.2       107.2       107.1       107.1       107.0       107.0       107.0       106.9       106.9    
        106.8       106.8       106.7       106.7       106.7    
  10    107.2       107.2       107.2       107.2       107.2       107.2       107.2       107.1       107.1       107.1    
        107.1       107.1       107.1       107.1       107.1       107.1       107.0       107.0       107.0       106.9    
        106.9       107.1       107.1       107.1       107.1       107.0       107.0       106.9       106.9       106.8    
        106.8       106.7       106.7       106.7       106.6    
  11    107.2       107.2       107.2       107.2       107.2       107.2       107.1       107.0       107.0       107.0    
        107.0       107.0       107.0       107.0       107.0       106.9       106.9       106.9       106.8       106.8    
        106.8       106.7       106.9       107.1       107.0       107.0       106.9       106.9       106.8       106.8    
        106.7       106.7       106.7       106.6       106.6    
  12    107.3       107.3       107.3       107.3       107.3       107.3       107.2       107.1       107.0       106.9    
        106.9       106.9       106.9       106.9       106.8       106.8       106.8       106.7       106.7       106.7    
        106.6       106.6       106.6       106.8       107.0       106.9       106.9       106.8       106.8       106.8    
        106.7       106.7       106.6       106.6       106.5    
  13    107.3       107.3       107.3       107.3       107.3       107.3       107.2       107.1       107.0       106.9    
        106.8       106.8       106.7       106.7       106.7       106.7       106.6       106.6       106.6       106.5    
        106.5       106.5       106.4       106.4       106.6       106.9       106.8       106.8       106.8       106.7    
        106.7       106.6       106.6       106.5       106.5    
  14    107.3       107.3       107.3       107.3       107.3       107.3       107.3       107.2       107.1       107.0    
        106.9       106.7       106.7       106.6       106.6       106.5       106.5       106.5       106.4       106.4    
        106.4       106.3       106.3       106.3       106.2       106.4       106.8       106.8       106.7       106.7    
        106.6       106.6       106.5       106.5       106.5    
  15    107.3       107.3       107.3       107.3       107.3       107.4       107.4       107.3       107.2       107.1    
        106.9       106.8       106.6       106.5       106.5       106.5       106.4       106.4       106.3       106.3    
        106.3       106.2       106.2       106.1       106.1       106.1       106.3       106.7       106.7       106.6    
        106.6       106.5       106.5       106.5       106.4    
  16    107.3       107.3       107.3       107.4       107.4       107.4       107.4       107.4       107.3       107.2    
        107.0       106.9       106.7       106.6       106.4       106.4       106.3       106.3       106.3       106.2    
        106.2       106.1       106.1       106.1       106.0       106.0       105.9       106.1       106.6       106.6    
        106.5       106.5       106.5       106.4       106.4    
  17    107.3       107.4       107.4       107.4       107.4       107.4       107.4       107.5       107.4       107.3    
        107.1       107.0       106.8       106.7       106.5       106.4       106.3       106.2       106.2       106.1    
        106.1       106.1       106.0       106.0       105.9       105.9       105.9       106.0       106.1       106.6    
        106.5       106.5       106.4       106.4       106.3    
  18    107.4       107.4       107.4       107.4       107.4       107.5       107.5       107.5       107.5       107.4    
        107.2       107.0       106.9       106.7       106.6       106.4       106.3       106.2       106.1       106.1    
        106.0       106.0       106.0       105.9       105.9       105.8       105.9       106.0       106.1       106.1    
        106.5       106.4       106.4       106.3       106.3    
  19    107.4       107.4       107.4       107.5       107.5       107.5       107.5       107.5       107.5       107.4    
        107.2       107.1       107.0       106.8       106.7       106.5       106.4       106.2       106.1       106.0    
        106.0       105.9       105.9       105.8       105.8       105.8       105.9       106.0       106.1       106.1    
        106.2       106.3       106.3       106.3       106.3    
  20    107.4       107.5       107.5       107.5       107.5       107.5       107.5       107.5       107.4       107.3    
        107.2       107.1       107.0       106.8       106.7       106.6       106.5       106.3       106.1       106.0    
        105.9       105.8       105.8       105.8       105.8       105.8       105.9       106.0       106.1       106.1    
        106.2       106.3       106.3       106.3       106.3    
  21    107.5       107.5       107.5       107.5       107.5       107.5       107.5       107.5       107.4       107.3    
        107.2       107.0       106.9       106.8       106.7       106.6       106.4       106.3       106.2       106.1    
        105.9       105.8       105.7       105.7       105.8       105.8       105.9       106.0       106.0       106.1    
        106.2       106.3       106.3       106.3       106.3    
  22    107.5       107.5       107.5       107.5       107.5       107.5       107.5       107.5       107.4       107.3    
        107.1       107.0       106.9       106.8       106.6       106.5       106.4       106.3       106.2       106.0    
        105.9       105.8       105.7       105.7       105.8       105.8       105.9       106.0       106.0       106.1    
        106.2       106.2       106.3       106.3       106.3    
  23    107.5       107.5       107.5       107.5       107.5       107.5       107.5       107.5       107.3       107.2    
        107.1       107.0       106.9       106.7       106.6       106.5       106.4       106.3       106.1       106.0    
        105.9       105.8       105.6       105.7       105.7       105.8       105.9       105.9       106.0       106.1    
        106.2       106.2       106.3       106.3       106.3    
  24    107.5       107.5       107.5       107.5       107.5       107.5       107.5       107.4       107.3       107.2    
        107.1       106.9       106.8       106.7       106.6       106.5       106.3       106.2       106.1       106.0    
        105.9       105.7       105.6       105.7       105.7       105.8       105.9       105.9       106.0       106.1    
        106.1       106.2       106.3       106.3       106.3    
  25    107.5       107.5       107.5       107.5       107.5       107.5       107.5       107.4       107.3       107.2    
        107.0       106.9       106.8       106.7       106.5       106.4       106.3       106.2       106.1       105.9    
        105.8       105.7       105.6       105.6       105.7       105.8       105.8       105.9       106.0       106.1    
        106.1       106.2       106.3       106.3       106.3    
  26    107.5       107.5       107.5       107.5       107.5       107.5       107.5       107.4       107.2       107.1    
        107.0       106.9       106.8       106.6       106.5       106.4       106.3       106.2       106.0       105.9    
        105.8       105.7       105.6       105.6       105.7       105.8       105.8       105.9       106.0       106.0    
        106.1       106.2       106.2       106.3       106.3    
  27    107.5       107.5       107.5       107.5       107.5       107.5       107.4       107.3       107.2       107.1    
        107.0       106.8       106.7       106.6       106.5       106.4       106.2       106.1       106.0       105.9    
        105.8       105.6       105.6       105.6       105.7       105.7       105.8       105.9       105.9       106.0    
        106.1       106.2       106.2       106.3       106.3    
  28    107.5       107.5       107.5       107.5       107.5       107.5       107.4       107.3       107.2       107.1    
        106.9       106.8       106.7       106.6       106.4       106.3       106.2       106.1       106.0       105.8    
        105.7       105.6       105.6       105.6       105.7       105.7       105.8       105.9       105.9       106.0    
        106.1       106.1       106.2       106.3       106.3    
  29    107.5       107.5       107.5       107.5       107.5       107.5       107.4       107.3       107.1       107.0    
        106.9       106.8       106.7       106.5       106.4       106.3       106.2       106.1       105.9       105.8    
        105.7       105.6       105.6       105.6       105.6       105.7       105.8       105.8       105.9       106.0    
        106.1       106.1       106.2       106.3       106.3    
  30    107.5       107.5       107.5       107.5       107.5       107.5       107.4       107.2       107.1       107.0    
        106.9       106.7       106.6       106.5       106.4       106.3       106.1       106.0       105.9       105.8    
        105.7       105.6       105.6       105.6       105.6       105.7       105.8       105.8       105.9       106.0    
        106.0       106.1       106.2       106.2       106.3    
  31    107.5       107.5       107.5       107.5       107.5       107.4       107.3       107.2       107.1       107.0    
[...]
 G13_129         109.76300049        109.71863556       4.43649291992E-02
 G13_130         109.79299927        109.72060394       7.23953247070E-02
 G13_131         109.85299683        109.76502228       8.79745483398E-02
 G13_132         109.83799744        109.75836945       7.96279907227E-02
 G12_1           110.65699768        110.56636810       9.06295776367E-02
 G12_2           110.56199646        110.51126862       5.07278442383E-02
 G12_3           110.48699951        110.43921661       4.77828979492E-02
 G12_4           110.42700195        110.37113953       5.58624267578E-02
 G12_5           109.84700012        109.76941681       7.75833129883E-02
 G12_6           109.76200104        109.65860748       0.10339355469    
 G12_7           109.65200043        109.55406952       9.79309082031E-02
 G12_8           109.60199738        109.48045349       0.12154388428    
 G12_9           109.42700195        109.30952454       0.11747741699    
 G12_10          109.40699768        109.28735352       0.11964416504    
 G12_11          109.39199829        109.27125549       0.12074279785    
 G12_12          109.37200165        109.25952148       0.11248016357    
 G12_13          109.36199951        109.24974060       0.11225891113    
 G12_14          109.29199982        109.17938232       0.11261749268    
 G12_15          109.31700134        109.20854950       0.10845184326    
 G12_16          109.31199646        109.20771027       0.10428619385    
 G12_17          109.33699799        109.24315643       9.38415527344E-02
 G12_18          109.40699768        109.29105377       0.11594390869    
 G12_19          109.39700317        109.29906464       9.79385375977E-02
 G12_20          109.39700317        109.30046844       9.65347290039E-02
 G12_21          109.38200378        109.28977203       9.22317504883E-02
 G12_22          109.38200378        109.28244781       9.95559692383E-02
 G12_23          109.28700256        109.18378448       0.10321807861    
 G12_24          109.27700043        109.19396973       8.30307006836E-02
 G12_25          109.38200378        109.32712555       5.48782348633E-02
 G12_26          109.59700012        109.51509857       8.19015502930E-02
 G12_27          109.73699951        109.66280365       7.41958618164E-02
 G12_28          109.65200043        109.56356812       8.84323120117E-02
 G12_29          109.57700348        109.49239349       8.46099853516E-02
 G12_30          109.53199768        109.43901062       9.29870605469E-02
 G12_31          109.47699738        109.37415314       0.10284423828    
 G12_32          109.42700195        109.32817841       9.88235473633E-02
 G12_33          109.35199738        109.24924469       0.10275268555    
 G12_34          109.33200073        109.25048828       8.15124511719E-02
 G12_35          109.51699829        109.41757965       9.94186401367E-02
 G12_36          109.57199860        109.48239136       8.96072387695E-02
 G12_37          109.57199860        109.48508453       8.69140625000E-02
 G12_38          109.53700256        109.46482086       7.21817016602E-02
 G12_39          109.46700287        109.38825989       7.87429809570E-02
 G12_40          109.45700073        109.37122345       8.57772827148E-02
 G12_41          109.49700165        109.42440796       7.25936889648E-02
 G12_42          109.54199982        109.46068573       8.13140869141E-02
 G12_43          109.47200012        109.41522980       5.67703247070E-02
 G12_44          109.52200317        109.44195557       8.00476074219E-02
 G12_45          109.55699921        109.44964600       0.10735321045    
 G12_46          109.54699707        109.49378967       5.32073974609E-02
 G12_47          109.62200165        109.56877899       5.32226562500E-02
 G12_48          109.66699982        109.59516907       7.18307495117E-02
 G12_49          109.58200073        109.51403809       6.79626464844E-02
 G12_50          109.50199890        109.43009949       7.18994140625E-02
 G12_51          109.46700287        109.37884521       8.81576538086E-02
 G12_52          109.41200256        109.32321167       8.87908935547E-02
 G12_53          109.40200043        109.32449341       7.75070190430E-02
 G12_54          109.43699646        109.33821106       9.87854003906E-02
 G12_55          109.40699768        109.33280182       7.41958618164E-02
 G12_56          109.40699768        109.32695007       8.00476074219E-02
 G12_57          109.43199921        109.35746002       7.45391845703E-02
 G12_58          109.43699646        109.35958862       7.74078369141E-02
 G12_59          109.44699860        109.36799622       7.90023803711E-02
 G12_60          109.46199799        109.37902832       8.29696655273E-02
 G12_61          109.43699646        109.37236023       6.46362304688E-02
 G12_62          109.42700195        109.35028076       7.67211914062E-02
 G12_63          109.36699677        109.29169464       7.53021240234E-02
 G12_64          109.38700104        109.30904388       7.79571533203E-02
 G12_65          109.39700317        109.31798553       7.90176391602E-02
 G12_66          109.42700195        109.35552979       7.14721679688E-02
 G12_67          109.48200226        109.37779999       0.10420227051    
 G12_68          109.50199890        109.42882538       7.31735229492E-02
 G12_69          109.51200104        109.44673157       6.52694702148E-02
 G12_70          109.56199646        109.50865173       5.33447265625E-02
 G12_71          109.67700195        109.62055969       5.64422607422E-02
 G12_72          109.79699707        109.76950073       2.74963378906E-02
 G12_73          109.81700134        109.78918457       2.78167724609E-02
 G12_74          109.82199860        109.79531860       2.66799926758E-02
 G12_75          109.82700348        109.78761292       3.93905639648E-02
 G12_76          109.84200287        109.79714966       4.48532104492E-02
 G12_77          109.83200073        109.79444885       3.75518798828E-02
 G12_78          110.26200104        110.24031830       2.16827392578E-02
 G12_79          110.33200073        110.36074829      -2.87475585938E-02
 G12_80          110.46199799        110.48148346      -1.94854736328E-02
 G12_81          110.40699768        110.44862366      -4.16259765625E-02
 G12_82          110.39700317        110.39143372       5.56945800781E-03
 G12_83          110.43199921        110.41912842       1.28707885742E-02
 G12_84          110.45700073        110.44667816       1.03225708008E-02
 G12_85          110.44400024        110.43441010       9.59014892578E-03
 G12_86          110.43199921        110.41335297       1.86462402344E-02
 G12_87          110.24199677        110.16307068       7.89260864258E-02
 G12_88          110.25199890        110.17640686       7.55920410156E-02
 G12_89          110.23699951        110.18412781       5.28717041016E-02
 G12_90          110.22699738        110.17727661       4.97207641602E-02
 G12_91          110.23699951        110.24240875      -5.40924072266E-03
 G12_92          110.23200226        110.13590240       9.60998535156E-02
 G12_93          109.99199677        109.94950104       4.24957275391E-02
 G12_94          109.90200043        109.85541534       4.65850830078E-02
 G12_95          109.89700317        109.80454254       9.24606323242E-02
 G12_96          109.82199860        109.76097870       6.10198974609E-02
 G12_97          109.85700226        109.78837585       6.86264038086E-02
 G12_98          109.93699646        109.86785126       6.91452026367E-02
 G12_99          109.95700073        109.91230774       4.46929931641E-02
 G12_100         110.01200104        109.95719147       5.48095703125E-02
 G12_101         110.17700195        110.16572571       1.12762451172E-02
 G12_102         110.16699982        110.16194153       5.05828857422E-03
 G12_103         110.28450012        110.24217224       4.23278808594E-02
 G12_104         110.40200043        110.41126251      -9.26208496094E-03
 G12_105         110.76699829        110.75557709       1.14212036133E-02
 G12_106         110.74199677        110.74656677      -4.57000732422E-03
 G12_107         110.70200348        110.72705078      -2.50473022461E-02
 G12_108         110.65699768        110.62040710       3.65905761719E-02
 G12_109         110.47200012        110.42259979       4.94003295898E-02
 G12_110         110.25700378        110.18057251       7.64312744141E-02
 G12_111         110.16699982        110.12884521       3.81546020508E-02
 G12_112         110.16699982        110.07283783       9.41619873047E-02
 G12_113         110.10199738        110.01895905       8.30383300781E-02
 G12_114         110.03700256        109.96607971       7.09228515625E-02
 G12_115         109.98200226        109.91906738       6.29348754883E-02
 G12_116         109.98699951        109.91575623       7.12432861328E-02
 G12_117         110.02200317        109.94863129       7.33718872070E-02
 G12_118         110.02700043        109.96627808       6.07223510742E-02
 G12_119         109.99700165        109.95547485       4.15267944336E-02
 G12_120         109.96700287        109.90319824       6.38046264648E-02
 G12_121         109.95700073        109.88851166       6.84890747070E-02
 G12_122         110.09700012        110.03781128       5.91888427734E-02
 G12_123         110.14700317        110.11106110       3.59420776367E-02
 G12_124         110.03700256        109.97704315       5.99594116211E-02
 G12_125         109.99700165        109.92944336       6.75582885742E-02
 G12_126         109.97699738        109.90879822       6.81991577148E-02
 G12_127         109.97200012        109.90278625       6.92138671875E-02
 G12_128         109.93699646        109.87626648       6.07299804688E-02
 G12_129         109.68699646        109.72699738      -4.00009155273E-02
 G12_130         109.78700256        109.72496796       6.20346069336E-02
 G12_131         109.85700226        109.76659393       9.04083251953E-02
 G12_132         109.84200287        109.76330566       7.86972045898E-02
 G21_1           110.63400269        110.52607727       0.10792541504    
 G21_2           110.54399872        110.46674347       7.72552490234E-02
 G21_3           110.47399902        110.38839722       8.56018066406E-02
 G21_4           110.40899658        110.32139587       8.76007080078E-02
 G21_5           109.81900024        109.67600250       0.14299774170    
 G21_6           109.74900055        109.56620789       0.18279266357    
 G21_7           109.63400269        109.46257782       0.17142486572    
 G21_8           109.58399963        109.39093781       0.19306182861    
 G21_9           109.41899872        109.22871399       0.19028472900    
 G21_10          109.39399719        109.21765137       0.17634582520    
 G21_11          109.38400269        109.20388031       0.18012237549    
 G21_12          109.36399841        109.19604492       0.16795349121    
 G21_13          109.35399628        109.18736267       0.16663360596    
 G21_14          109.27899933        109.11112976       0.16786956787    
 G21_15          109.30899811        109.15859222       0.15040588379    
 G21_16          109.29900360        109.15293884       0.14606475830    
 G21_17          109.32900238        109.20404053       0.12496185303    
 G21_18          109.39900208        109.25316620       0.14583587646    
 G21_19          109.38400269        109.25057220       0.13343048096    
 G21_20          109.38899994        109.25412750       0.13487243652    
 G21_21          109.36900330        109.23854828       0.13045501709    
 G21_22          109.37400055        109.23097992       0.14302062988    
 G21_23          109.27400208        109.12225342       0.15174865723    
 G21_24          109.26399994        109.14958191       0.11441802979    
 G21_25          109.36900330        109.32688904       4.21142578125E-02
 G21_26          109.59400177        109.55387115       4.01306152344E-02
 G21_27          109.72399902        109.69347382       3.05252075195E-02
 G21_28          109.63400269        109.49262238       0.14138031006    
 G21_29          109.56400299        109.41860199       0.14540100098    
 G21_30          109.51899719        109.36745453       0.15154266357    
 G21_31          109.46399689        109.29769897       0.16629791260    
 G21_32          109.40399933        109.26079559       0.14320373535    
 G21_33          109.33899689        109.18829346       0.15070343018    
 G21_34          109.31900024        109.20114899       0.11785125732    
 G21_35          109.54900360        109.43229675       0.11670684814    
 G21_36          109.55400085        109.46501160       8.89892578125E-02
 G21_37          109.51399994        109.44810486       6.58950805664E-02
 G21_38          109.53399658        109.41790771       0.11608886719    
 G21_39          109.45899963        109.33099365       0.12800598145    
 G21_40          109.44899750        109.32099915       0.12799835205    
 G21_41          109.48899841        109.40515900       8.38394165039E-02
 G21_42          109.52899933        109.43280792       9.61914062500E-02
 G21_43          109.46399689        109.36125946       0.10273742676    
 G21_44          109.51399994        109.41243744       0.10156250000    
 G21_45          109.55899811        109.40264893       0.15634918213    
 G21_46          109.53900146        109.47940826       5.95932006836E-02
 G21_47          109.61399841        109.57002258       4.39758300781E-02
 G21_48          109.65899658        109.57288361       8.61129760742E-02
 G21_49          109.56900024        109.44357300       0.12542724609    
 G21_50          109.48899841        109.35722351       0.13177490234    
 G21_51          109.45400238        109.31491089       0.13909149170    
 G21_52          109.39900208        109.25777435       0.14122772217    
 G21_53          109.39399719        109.28119659       0.11280059814    
 G21_54          109.42400360        109.29353333       0.13047027588    
 G21_55          109.39900208        109.29012299       0.10887908936    
 G21_56          109.39399719        109.28616333       0.10783386230    
 G21_57          109.42400360        109.32559967       9.84039306641E-02
 G21_58          109.42900085        109.32408142       0.10491943359    
 G21_59          109.43900299        109.33069611       0.10830688477    
 G21_60          109.45400238        109.34092712       0.11307525635    
 G21_61          109.43399811        109.33313751       0.10086059570    
 G21_62          109.40899658        109.30323029       0.10576629639    
 G21_63          109.35900116        109.24537659       0.11362457275    
 G21_64          109.38400269        109.27177429       0.11222839355    
 G21_65          109.39900208        109.27871704       0.12028503418    
 G21_66          109.42400360        109.32966614       9.43374633789E-02
 G21_67          109.45400238        109.36338806       9.06143188477E-02
 G21_68          109.49900055        109.41020203       8.87985229492E-02
 G21_69          109.50399780        109.41213989       9.18579101562E-02
 G21_70          109.55400085        109.50656128       4.74395751953E-02
 G21_71          109.66899872        109.64125061       2.77481079102E-02
 G21_72          109.79900360        109.81548309      -1.64794921875E-02
 G21_73          109.83399963        109.78622437       4.77752685547E-02
 G21_74          109.82900238        109.77972412       4.92782592773E-02
 G21_75          109.82399750        109.76469421       5.93032836914E-02
 G21_76          109.82900238        109.77820587       5.07965087891E-02
 G21_77          109.81400299        109.77523804       3.87649536133E-02
 G21_78          110.26899719        110.30100250      -3.20053100586E-02
 G21_79          110.32399750        110.42649841      -0.10250091553    
 G21_80          110.45400238        110.54553986      -9.15374755859E-02
 G21_81          110.40399933        110.44833374      -4.43344116211E-02
 G21_82          110.37400055        110.38728333      -1.32827758789E-02
 G21_83          110.42400360        110.42765808      -3.65447998047E-03
 G21_84          110.44400024        110.45269775      -8.69750976562E-03
 G21_85          110.42900085        110.42709351       1.90734863281E-03
 G21_86          110.41400146        110.40058136       1.34201049805E-02
 G21_87          110.21900177        110.08902740       0.12997436523    
 G21_88          110.23899841        110.14951324       8.94851684570E-02
 G21_89          110.22399902        110.16251373       6.14852905273E-02
 G21_90          110.20400238        110.15204620       5.19561767578E-02
 G21_91          110.23400116        110.23784637      -3.84521484375E-03
 G21_92          110.20400238        110.05095673       0.15304565430    
 G21_93          109.98100281        109.83786011       0.14314270020    
 G21_94          109.87400055        109.78591156       8.80889892578E-02
 G21_95          109.87400055        109.73906708       0.13493347168    
 G21_96          109.80899811        109.72320557       8.57925415039E-02
 G21_97          109.84400177        109.76487732       7.91244506836E-02
 G21_98          109.92900085        109.86641693       6.25839233398E-02
 G21_99          109.94899750        109.90543365       4.35638427734E-02
 G21_100         110.00399780        109.95079041       5.32073974609E-02
 G21_101         110.16899872        110.14501190       2.39868164062E-02
 G21_102         110.16400146        110.15089417       1.31072998047E-02
 G21_103         110.28150177        110.25936127       2.21405029297E-02
 G21_104         110.39900208        110.48805237      -8.90502929688E-02
 G21_105         110.73400116        110.80271912      -6.87179565430E-02
 G21_106         110.72899628        110.75177002      -2.27737426758E-02
 G21_107         110.71399689        110.72229004      -8.29315185547E-03
 G21_108         110.62400055        110.57123566       5.27648925781E-02
 G21_109         110.44400024        110.36133575       8.26644897461E-02
 G21_110         110.23400116        110.08283997       0.15116119385    
 G21_111         110.11399841        110.04518890       6.88095092773E-02
 G21_112         110.13899994        110.00449371       0.13450622559    
 G21_113         110.08399963        109.95642853       0.12757110596    
 G21_114         110.01899719        109.90507507       0.11392211914    
 G21_115         109.97399902        109.88034058       9.36584472656E-02
 G21_116         109.97399902        109.87839508       9.56039428711E-02
 G21_117         110.00399780        109.92518616       7.88116455078E-02
 G21_118         110.01399994        109.94020081       7.37991333008E-02
 G21_119         109.98400116        109.92430878       5.96923828125E-02
 G21_120         109.95400238        109.85971832       9.42840576172E-02
 G21_121         109.94400024        109.84793854       9.60617065430E-02
 G21_122         110.07900238        110.04667664       3.23257446289E-02
 G21_123         110.13899994        110.12144470       1.75552368164E-02
 G21_124         109.98400116        109.91539001       6.86111450195E-02
 G21_125         109.97399902        109.87359619       0.10040283203    
 G21_126         109.96399689        109.86419678       9.98001098633E-02
 G21_127         109.95400238        109.86327362       9.07287597656E-02
 G21_128         109.91899872        109.83241272       8.65859985352E-02
 G21_129         109.77400208        109.66858673       0.10541534424    
 G21_130         109.78399658        109.68763733       9.63592529297E-02
 G21_131         109.84400177        109.74285126       0.10115051270    
 G21_132         109.82399750        109.72219849       0.10179901123    

 HEAD/DRAWDOWN SUM OF SQUARED DIFFERENCE:    1.23274E+01

 Run end date and time (yyyy/mm/dd hh:mm:ss): 2016/07/07 11:55:41
 Elapsed run time:  8.810 Seconds

